*SPEF "ieee 1481-1999"
*DESIGN "alu_flags"
*DATE "11:11:11 Fri 11 11, 1111"
*VENDOR "OpenRCX"
*PROGRAM "Parallel Extraction"
*VERSION "1.0"
*DESIGN_FLOW "NAME_SCOPE LOCAL" "PIN_CAP NONE"
*DIVIDER /
*DELIMITER :
*BUS_DELIMITER []
*T_UNIT 1 NS
*C_UNIT 1 PF
*R_UNIT 1 OHM
*L_UNIT 1 HENRY

*NAME_MAP
*1 A[0]
*2 A[1]
*3 A[2]
*4 A[3]
*5 A[4]
*6 A[5]
*7 A[6]
*8 A[7]
*9 B[0]
*10 B[1]
*11 B[2]
*12 B[3]
*13 B[4]
*14 B[5]
*15 B[6]
*16 B[7]
*19 Y[0]
*20 Y[10]
*21 Y[11]
*22 Y[12]
*23 Y[13]
*24 Y[14]
*25 Y[15]
*26 Y[1]
*27 Y[2]
*28 Y[3]
*29 Y[4]
*30 Y[5]
*31 Y[6]
*32 Y[7]
*33 Y[8]
*34 Y[9]
*35 carry
*36 op[0]
*37 op[1]
*38 op[2]
*39 overflow
*40 sign
*41 zero
*42 _0000_
*43 _0001_
*44 _0002_
*45 _0003_
*46 _0004_
*47 _0005_
*48 _0006_
*49 _0007_
*50 _0008_
*51 _0009_
*52 _0010_
*53 _0011_
*54 _0012_
*55 _0013_
*56 _0014_
*57 _0015_
*58 _0016_
*59 _0017_
*60 _0018_
*61 _0019_
*62 _0020_
*63 _0021_
*64 _0022_
*65 _0023_
*66 _0024_
*67 _0025_
*68 _0026_
*69 _0027_
*70 _0028_
*71 _0029_
*72 _0030_
*73 _0031_
*74 _0032_
*75 _0033_
*76 _0034_
*77 _0035_
*78 _0036_
*79 _0037_
*80 _0038_
*81 _0039_
*82 _0040_
*83 _0041_
*84 _0042_
*85 _0043_
*86 _0044_
*87 _0045_
*88 _0046_
*89 _0047_
*90 _0048_
*91 _0049_
*92 _0050_
*93 _0051_
*94 _0052_
*95 _0053_
*96 _0054_
*97 _0055_
*98 _0056_
*99 _0057_
*100 _0058_
*101 _0059_
*102 _0060_
*103 _0061_
*104 _0062_
*105 _0063_
*106 _0064_
*107 _0065_
*108 _0066_
*109 _0067_
*110 _0068_
*111 _0069_
*112 _0070_
*113 _0071_
*114 _0072_
*115 _0073_
*116 _0074_
*117 _0075_
*118 _0076_
*119 _0077_
*120 _0078_
*121 _0079_
*122 _0080_
*123 _0081_
*124 _0082_
*125 _0083_
*126 _0084_
*127 _0085_
*128 _0086_
*129 _0087_
*130 _0088_
*131 _0089_
*132 _0090_
*133 _0091_
*134 _0092_
*135 _0093_
*136 _0094_
*137 _0095_
*138 _0096_
*139 _0097_
*140 _0098_
*141 _0099_
*142 _0100_
*143 _0101_
*144 _0102_
*145 _0103_
*146 _0104_
*147 _0105_
*148 _0106_
*149 _0107_
*150 _0108_
*151 _0109_
*152 _0110_
*153 _0111_
*154 _0112_
*155 _0113_
*156 _0114_
*157 _0115_
*158 _0116_
*159 _0117_
*160 _0118_
*161 _0119_
*162 _0120_
*163 _0121_
*164 _0122_
*165 _0123_
*166 _0124_
*167 _0125_
*168 _0126_
*169 _0127_
*170 _0128_
*171 _0129_
*172 _0130_
*173 _0131_
*174 _0132_
*175 _0133_
*176 _0134_
*177 _0135_
*178 _0136_
*179 _0137_
*180 _0138_
*181 _0139_
*182 _0140_
*183 _0141_
*184 _0142_
*185 _0143_
*186 _0144_
*187 _0145_
*188 _0146_
*189 _0147_
*190 _0148_
*191 _0149_
*192 _0150_
*193 _0151_
*194 _0152_
*195 _0153_
*196 _0154_
*197 _0155_
*198 _0156_
*199 _0157_
*200 _0158_
*201 _0159_
*202 _0160_
*203 _0161_
*204 _0162_
*205 _0163_
*206 _0164_
*207 _0165_
*208 _0166_
*209 _0167_
*210 _0168_
*211 _0169_
*212 _0170_
*213 _0171_
*214 _0172_
*215 _0173_
*216 _0174_
*217 _0175_
*218 _0176_
*219 _0177_
*220 _0178_
*221 _0179_
*222 _0180_
*223 _0181_
*224 _0182_
*225 _0183_
*226 _0184_
*227 _0185_
*228 _0186_
*229 _0187_
*230 _0188_
*231 _0189_
*232 _0190_
*233 _0191_
*234 _0192_
*235 _0193_
*236 _0194_
*237 _0195_
*238 _0196_
*239 _0197_
*240 _0198_
*241 _0199_
*242 _0200_
*243 _0201_
*244 _0202_
*245 _0203_
*246 _0204_
*247 _0205_
*248 _0206_
*249 _0207_
*250 _0208_
*251 _0209_
*252 _0210_
*253 _0211_
*254 _0212_
*255 _0213_
*256 _0214_
*257 _0215_
*258 _0216_
*259 _0217_
*260 _0218_
*261 _0219_
*262 _0220_
*263 _0221_
*264 _0222_
*265 _0223_
*266 _0224_
*267 _0225_
*268 _0226_
*269 _0227_
*270 _0228_
*271 _0229_
*272 _0230_
*273 _0231_
*274 _0232_
*275 _0233_
*276 _0234_
*277 _0235_
*278 _0236_
*279 _0237_
*280 _0238_
*281 _0239_
*282 _0240_
*283 _0241_
*284 _0242_
*285 _0243_
*286 _0244_
*287 _0245_
*288 _0246_
*289 _0247_
*290 _0248_
*291 _0249_
*292 _0250_
*293 _0251_
*294 _0252_
*295 _0253_
*296 _0254_
*297 _0255_
*298 _0256_
*299 _0257_
*300 _0258_
*301 _0259_
*302 _0260_
*303 _0261_
*304 _0262_
*305 _0263_
*306 _0264_
*307 _0265_
*308 _0266_
*309 _0267_
*310 _0268_
*311 _0269_
*312 _0270_
*313 _0271_
*314 _0272_
*315 _0273_
*316 _0274_
*317 _0275_
*318 _0276_
*319 _0277_
*320 _0278_
*321 _0279_
*322 _0280_
*323 _0281_
*324 _0282_
*325 _0283_
*326 _0284_
*327 _0285_
*328 _0286_
*329 _0287_
*330 _0288_
*331 _0289_
*332 _0290_
*333 _0291_
*334 _0292_
*335 _0293_
*336 _0294_
*337 _0295_
*338 _0296_
*339 _0297_
*340 _0298_
*341 _0299_
*342 _0300_
*343 _0301_
*344 _0302_
*345 _0303_
*346 _0304_
*347 _0305_
*348 _0306_
*349 _0307_
*350 _0308_
*351 _0309_
*352 _0310_
*353 _0311_
*354 _0312_
*355 _0313_
*356 _0314_
*357 _0315_
*358 _0316_
*359 _0317_
*360 _0318_
*361 _0319_
*362 _0320_
*363 _0321_
*364 _0322_
*365 _0323_
*366 _0324_
*367 _0325_
*368 _0326_
*369 _0327_
*370 _0328_
*371 _0329_
*372 _0330_
*373 _0331_
*374 _0332_
*375 _0333_
*376 _0334_
*377 _0335_
*378 _0336_
*379 _0337_
*380 _0338_
*381 _0339_
*382 _0340_
*383 _0341_
*384 _0342_
*385 _0343_
*386 _0344_
*387 _0345_
*388 _0346_
*389 _0347_
*390 _0348_
*391 _0349_
*392 _0350_
*393 _0351_
*394 _0352_
*395 _0353_
*396 _0354_
*397 _0355_
*398 _0356_
*399 _0357_
*400 _0358_
*401 _0359_
*402 _0360_
*403 _0361_
*404 _0362_
*405 _0363_
*406 _0364_
*407 _0365_
*408 _0366_
*409 _0367_
*410 _0368_
*411 _0369_
*412 _0370_
*413 _0371_
*414 _0372_
*415 _0373_
*416 _0374_
*417 _0375_
*418 _0376_
*419 _0377_
*420 _0378_
*421 _0379_
*422 _0380_
*423 _0381_
*424 _0382_
*425 _0383_
*426 _0384_
*427 _0385_
*428 _0386_
*429 _0387_
*430 _0388_
*431 _0389_
*432 _0390_
*433 _0391_
*434 _0392_
*435 _0393_
*436 _0394_
*437 _0395_
*438 _0396_
*439 _0397_
*440 _0398_
*441 _0399_
*442 _0400_
*443 _0401_
*444 _0402_
*445 _0403_
*446 _0404_
*447 _0405_
*448 _0406_
*449 _0407_
*450 _0408_
*451 _0409_
*452 _0410_
*453 _0411_
*454 _0412_
*455 _0413_
*456 _0414_
*457 _0415_
*458 _0416_
*459 _0417_
*460 _0418_
*461 _0419_
*462 _0420_
*463 _0421_
*464 _0422_
*465 _0423_
*466 _0424_
*467 _0425_
*468 _0426_
*469 _0427_
*470 _0428_
*471 _0429_
*472 _0430_
*473 _0431_
*474 _0432_
*475 _0433_
*476 _0434_
*477 _0435_
*478 _0436_
*479 _0437_
*480 _0438_
*481 _0439_
*482 _0440_
*483 _0441_
*484 _0442_
*485 _0443_
*486 _0444_
*487 _0445_
*488 _0446_
*489 _0447_
*490 _0448_
*491 _0449_
*492 _0450_
*493 _0451_
*494 _0452_
*495 _0453_
*496 _0454_
*497 _0455_
*498 _0456_
*499 _0457_
*500 _0458_
*501 _0459_
*502 _0460_
*503 _0461_
*504 _0462_
*505 _0463_
*506 _0464_
*507 _0465_
*508 _0466_
*509 _0467_
*510 _0468_
*511 _0469_
*512 _0470_
*513 _0471_
*514 _0472_
*515 _0473_
*516 _0474_
*517 _0475_
*518 _0476_
*519 _0477_
*520 _0478_
*521 _0479_
*522 _0480_
*523 _0481_
*524 _0482_
*525 _0483_
*526 _0484_
*527 _0485_
*528 _0486_
*529 _0487_
*530 _0488_
*531 _0489_
*532 _0490_
*533 _0491_
*534 _0492_
*535 _0493_
*536 _0494_
*537 _0495_
*538 _0496_
*539 _0497_
*540 _0498_
*541 _0499_
*542 _0500_
*543 _0501_
*544 _0502_
*545 _0503_
*546 _0504_
*547 _0505_
*548 _0506_
*549 _0507_
*550 _0508_
*551 _0509_
*552 _0510_
*553 _0511_
*554 _0512_
*555 _0513_
*556 _0514_
*557 _0515_
*558 _0516_
*559 _0517_
*560 _0518_
*561 _0519_
*562 _0520_
*563 _0521_
*564 _0522_
*565 _0523_
*566 _0524_
*567 _0525_
*568 _0526_
*569 _0527_
*570 _0528_
*571 _0529_
*572 _0530_
*573 _0531_
*574 _0532_
*575 _0533_
*576 _0534_
*577 _0535_
*578 _0536_
*579 _0537_
*580 _0538_
*581 _0539_
*582 _0540_
*583 _0541_
*584 _0542_
*585 _0543_
*586 _0544_
*587 _0545_
*588 _0546_
*589 _0547_
*590 _0548_
*591 _0549_
*592 _0550_
*593 _0551_
*594 _0552_
*595 _0553_
*596 _0554_
*597 _0555_
*598 _0556_
*599 _0557_
*600 _0558_
*601 _0559_
*602 _0560_
*603 _0561_
*604 _0562_
*605 _0563_
*606 _0564_
*607 _0565_
*608 _0566_
*609 _0567_
*610 _0568_
*611 _0569_
*612 _0570_
*613 _0571_
*614 _0572_
*615 _0573_
*616 _0574_
*617 _0575_
*618 _0576_
*619 _0577_
*620 _0578_
*621 _0579_
*622 _0580_
*623 _0581_
*624 _0582_
*625 _0583_
*626 _0584_
*627 _0585_
*628 _0586_
*629 _0587_
*630 _0588_
*631 _0589_
*632 _0590_
*633 _0591_
*634 _0592_
*635 _0593_
*636 _0594_
*637 _0595_
*638 _0596_
*639 _0597_
*640 _0598_
*641 _0599_
*642 _0600_
*643 _0601_
*644 _0602_
*645 _0603_
*646 _0604_
*647 _0605_
*648 _0606_
*649 _0607_
*650 _0608_
*651 _0609_
*652 _0610_
*653 _0611_
*654 _0612_
*655 _0613_
*656 _0614_
*657 _0615_
*658 _0616_
*659 _0617_
*660 _0618_
*661 _0619_
*662 _0620_
*663 _0621_
*664 _0622_
*665 _0623_
*666 _0624_
*667 _0625_
*668 _0626_
*669 _0627_
*670 _0628_
*671 _0629_
*672 _0630_
*673 _0631_
*674 _0632_
*675 _0633_
*676 _0634_
*677 _0635_
*678 _0636_
*679 _0637_
*680 _0638_
*681 _0639_
*682 _0640_
*683 _0641_
*684 _0642_
*685 _0643_
*686 _0644_
*687 _0645_
*688 _0646_
*689 _0647_
*690 _0648_
*691 _0649_
*692 _0650_
*693 _0651_
*694 _0652_
*695 _0653_
*696 _0654_
*697 _0655_
*698 _0656_
*699 _0657_
*700 _0658_
*701 _0659_
*702 _0660_
*703 _0661_
*704 _0662_
*705 _0663_
*706 _0664_
*707 ANTENNA_1
*708 ANTENNA_10
*709 ANTENNA_100
*710 ANTENNA_101
*711 ANTENNA_102
*712 ANTENNA_103
*713 ANTENNA_104
*714 ANTENNA_105
*715 ANTENNA_106
*716 ANTENNA_107
*717 ANTENNA_108
*718 ANTENNA_109
*719 ANTENNA_11
*720 ANTENNA_110
*721 ANTENNA_111
*722 ANTENNA_112
*723 ANTENNA_113
*724 ANTENNA_114
*725 ANTENNA_115
*726 ANTENNA_116
*727 ANTENNA_117
*728 ANTENNA_118
*729 ANTENNA_119
*730 ANTENNA_12
*731 ANTENNA_120
*732 ANTENNA_121
*733 ANTENNA_122
*734 ANTENNA_123
*735 ANTENNA_124
*736 ANTENNA_125
*737 ANTENNA_126
*738 ANTENNA_127
*739 ANTENNA_128
*740 ANTENNA_129
*741 ANTENNA_13
*742 ANTENNA_130
*743 ANTENNA_131
*744 ANTENNA_132
*745 ANTENNA_133
*746 ANTENNA_134
*747 ANTENNA_135
*748 ANTENNA_136
*749 ANTENNA_137
*750 ANTENNA_138
*751 ANTENNA_139
*752 ANTENNA_14
*753 ANTENNA_140
*754 ANTENNA_141
*755 ANTENNA_142
*756 ANTENNA_143
*757 ANTENNA_144
*758 ANTENNA_145
*759 ANTENNA_146
*760 ANTENNA_147
*761 ANTENNA_148
*762 ANTENNA_149
*763 ANTENNA_15
*764 ANTENNA_150
*765 ANTENNA_16
*766 ANTENNA_17
*767 ANTENNA_18
*768 ANTENNA_19
*769 ANTENNA_2
*770 ANTENNA_20
*771 ANTENNA_21
*772 ANTENNA_22
*773 ANTENNA_23
*774 ANTENNA_24
*775 ANTENNA_25
*776 ANTENNA_26
*777 ANTENNA_27
*778 ANTENNA_28
*779 ANTENNA_29
*780 ANTENNA_3
*781 ANTENNA_30
*782 ANTENNA_31
*783 ANTENNA_32
*784 ANTENNA_33
*785 ANTENNA_34
*786 ANTENNA_35
*787 ANTENNA_36
*788 ANTENNA_37
*789 ANTENNA_38
*790 ANTENNA_39
*791 ANTENNA_4
*792 ANTENNA_40
*793 ANTENNA_41
*794 ANTENNA_42
*795 ANTENNA_43
*796 ANTENNA_44
*797 ANTENNA_45
*798 ANTENNA_46
*799 ANTENNA_47
*800 ANTENNA_48
*801 ANTENNA_49
*802 ANTENNA_5
*803 ANTENNA_50
*804 ANTENNA_51
*805 ANTENNA_52
*806 ANTENNA_53
*807 ANTENNA_54
*808 ANTENNA_55
*809 ANTENNA_56
*810 ANTENNA_57
*811 ANTENNA_58
*812 ANTENNA_59
*813 ANTENNA_6
*814 ANTENNA_60
*815 ANTENNA_61
*816 ANTENNA_62
*817 ANTENNA_63
*818 ANTENNA_64
*819 ANTENNA_65
*820 ANTENNA_66
*821 ANTENNA_67
*822 ANTENNA_68
*823 ANTENNA_69
*824 ANTENNA_7
*825 ANTENNA_70
*826 ANTENNA_71
*827 ANTENNA_72
*828 ANTENNA_73
*829 ANTENNA_74
*830 ANTENNA_75
*831 ANTENNA_76
*832 ANTENNA_77
*833 ANTENNA_78
*834 ANTENNA_79
*835 ANTENNA_8
*836 ANTENNA_80
*837 ANTENNA_81
*838 ANTENNA_82
*839 ANTENNA_83
*840 ANTENNA_84
*841 ANTENNA_85
*842 ANTENNA_86
*843 ANTENNA_87
*844 ANTENNA_88
*845 ANTENNA_89
*846 ANTENNA_9
*847 ANTENNA_90
*848 ANTENNA_91
*849 ANTENNA_92
*850 ANTENNA_93
*851 ANTENNA_94
*852 ANTENNA_95
*853 ANTENNA_96
*854 ANTENNA_97
*855 ANTENNA_98
*856 ANTENNA_99
*857 FILLER_0_0_109
*858 FILLER_0_0_113
*859 FILLER_0_0_125
*860 FILLER_0_0_137
*861 FILLER_0_0_141
*862 FILLER_0_0_15
*863 FILLER_0_0_153
*864 FILLER_0_0_165
*865 FILLER_0_0_169
*866 FILLER_0_0_181
*867 FILLER_0_0_193
*868 FILLER_0_0_197
*869 FILLER_0_0_209
*870 FILLER_0_0_221
*871 FILLER_0_0_225
*872 FILLER_0_0_237
*873 FILLER_0_0_249
*874 FILLER_0_0_253
*875 FILLER_0_0_265
*876 FILLER_0_0_27
*877 FILLER_0_0_277
*878 FILLER_0_0_281
*879 FILLER_0_0_29
*880 FILLER_0_0_293
*881 FILLER_0_0_3
*882 FILLER_0_0_305
*883 FILLER_0_0_309
*884 FILLER_0_0_321
*885 FILLER_0_0_333
*886 FILLER_0_0_337
*887 FILLER_0_0_349
*888 FILLER_0_0_361
*889 FILLER_0_0_365
*890 FILLER_0_0_377
*891 FILLER_0_0_385
*892 FILLER_0_0_391
*893 FILLER_0_0_393
*894 FILLER_0_0_405
*895 FILLER_0_0_41
*896 FILLER_0_0_417
*897 FILLER_0_0_421
*898 FILLER_0_0_433
*899 FILLER_0_0_445
*900 FILLER_0_0_449
*901 FILLER_0_0_461
*902 FILLER_0_0_473
*903 FILLER_0_0_477
*904 FILLER_0_0_489
*905 FILLER_0_0_501
*906 FILLER_0_0_505
*907 FILLER_0_0_517
*908 FILLER_0_0_529
*909 FILLER_0_0_53
*910 FILLER_0_0_533
*911 FILLER_0_0_545
*912 FILLER_0_0_557
*913 FILLER_0_0_561
*914 FILLER_0_0_57
*915 FILLER_0_0_573
*916 FILLER_0_0_585
*917 FILLER_0_0_589
*918 FILLER_0_0_602
*919 FILLER_0_0_614
*920 FILLER_0_0_617
*921 FILLER_0_0_629
*922 FILLER_0_0_641
*923 FILLER_0_0_645
*924 FILLER_0_0_657
*925 FILLER_0_0_669
*926 FILLER_0_0_673
*927 FILLER_0_0_685
*928 FILLER_0_0_69
*929 FILLER_0_0_697
*930 FILLER_0_0_701
*931 FILLER_0_0_713
*932 FILLER_0_0_725
*933 FILLER_0_0_729
*934 FILLER_0_0_741
*935 FILLER_0_0_753
*936 FILLER_0_0_757
*937 FILLER_0_0_769
*938 FILLER_0_0_781
*939 FILLER_0_0_785
*940 FILLER_0_0_797
*941 FILLER_0_0_809
*942 FILLER_0_0_81
*943 FILLER_0_0_813
*944 FILLER_0_0_825
*945 FILLER_0_0_837
*946 FILLER_0_0_841
*947 FILLER_0_0_85
*948 FILLER_0_0_97
*949 FILLER_0_100_109
*950 FILLER_0_100_121
*951 FILLER_0_100_133
*952 FILLER_0_100_139
*953 FILLER_0_100_141
*954 FILLER_0_100_15
*955 FILLER_0_100_153
*956 FILLER_0_100_165
*957 FILLER_0_100_177
*958 FILLER_0_100_189
*959 FILLER_0_100_195
*960 FILLER_0_100_197
*961 FILLER_0_100_209
*962 FILLER_0_100_221
*963 FILLER_0_100_233
*964 FILLER_0_100_245
*965 FILLER_0_100_251
*966 FILLER_0_100_253
*967 FILLER_0_100_265
*968 FILLER_0_100_27
*969 FILLER_0_100_274
*970 FILLER_0_100_286
*971 FILLER_0_100_29
*972 FILLER_0_100_298
*973 FILLER_0_100_3
*974 FILLER_0_100_306
*975 FILLER_0_100_309
*976 FILLER_0_100_321
*977 FILLER_0_100_333
*978 FILLER_0_100_345
*979 FILLER_0_100_357
*980 FILLER_0_100_363
*981 FILLER_0_100_365
*982 FILLER_0_100_377
*983 FILLER_0_100_389
*984 FILLER_0_100_401
*985 FILLER_0_100_41
*986 FILLER_0_100_413
*987 FILLER_0_100_419
*988 FILLER_0_100_421
*989 FILLER_0_100_433
*990 FILLER_0_100_445
*991 FILLER_0_100_457
*992 FILLER_0_100_469
*993 FILLER_0_100_475
*994 FILLER_0_100_477
*995 FILLER_0_100_489
*996 FILLER_0_100_501
*997 FILLER_0_100_505
*998 FILLER_0_100_512
*999 FILLER_0_100_524
*1000 FILLER_0_100_53
*1001 FILLER_0_100_533
*1002 FILLER_0_100_545
*1003 FILLER_0_100_557
*1004 FILLER_0_100_569
*1005 FILLER_0_100_581
*1006 FILLER_0_100_587
*1007 FILLER_0_100_589
*1008 FILLER_0_100_601
*1009 FILLER_0_100_613
*1010 FILLER_0_100_625
*1011 FILLER_0_100_638
*1012 FILLER_0_100_645
*1013 FILLER_0_100_65
*1014 FILLER_0_100_657
*1015 FILLER_0_100_669
*1016 FILLER_0_100_681
*1017 FILLER_0_100_693
*1018 FILLER_0_100_699
*1019 FILLER_0_100_701
*1020 FILLER_0_100_713
*1021 FILLER_0_100_725
*1022 FILLER_0_100_737
*1023 FILLER_0_100_749
*1024 FILLER_0_100_755
*1025 FILLER_0_100_757
*1026 FILLER_0_100_769
*1027 FILLER_0_100_77
*1028 FILLER_0_100_781
*1029 FILLER_0_100_793
*1030 FILLER_0_100_801
*1031 FILLER_0_100_809
*1032 FILLER_0_100_813
*1033 FILLER_0_100_825
*1034 FILLER_0_100_83
*1035 FILLER_0_100_837
*1036 FILLER_0_100_841
*1037 FILLER_0_100_85
*1038 FILLER_0_100_97
*1039 FILLER_0_101_105
*1040 FILLER_0_101_111
*1041 FILLER_0_101_113
*1042 FILLER_0_101_125
*1043 FILLER_0_101_137
*1044 FILLER_0_101_15
*1045 FILLER_0_101_156
*1046 FILLER_0_101_169
*1047 FILLER_0_101_181
*1048 FILLER_0_101_193
*1049 FILLER_0_101_205
*1050 FILLER_0_101_217
*1051 FILLER_0_101_223
*1052 FILLER_0_101_225
*1053 FILLER_0_101_237
*1054 FILLER_0_101_249
*1055 FILLER_0_101_261
*1056 FILLER_0_101_27
*1057 FILLER_0_101_273
*1058 FILLER_0_101_279
*1059 FILLER_0_101_281
*1060 FILLER_0_101_293
*1061 FILLER_0_101_3
*1062 FILLER_0_101_305
*1063 FILLER_0_101_317
*1064 FILLER_0_101_329
*1065 FILLER_0_101_335
*1066 FILLER_0_101_337
*1067 FILLER_0_101_349
*1068 FILLER_0_101_361
*1069 FILLER_0_101_373
*1070 FILLER_0_101_385
*1071 FILLER_0_101_39
*1072 FILLER_0_101_391
*1073 FILLER_0_101_393
*1074 FILLER_0_101_405
*1075 FILLER_0_101_417
*1076 FILLER_0_101_429
*1077 FILLER_0_101_441
*1078 FILLER_0_101_447
*1079 FILLER_0_101_449
*1080 FILLER_0_101_461
*1081 FILLER_0_101_473
*1082 FILLER_0_101_485
*1083 FILLER_0_101_497
*1084 FILLER_0_101_503
*1085 FILLER_0_101_505
*1086 FILLER_0_101_51
*1087 FILLER_0_101_517
*1088 FILLER_0_101_529
*1089 FILLER_0_101_541
*1090 FILLER_0_101_55
*1091 FILLER_0_101_553
*1092 FILLER_0_101_559
*1093 FILLER_0_101_561
*1094 FILLER_0_101_57
*1095 FILLER_0_101_573
*1096 FILLER_0_101_585
*1097 FILLER_0_101_597
*1098 FILLER_0_101_609
*1099 FILLER_0_101_615
*1100 FILLER_0_101_617
*1101 FILLER_0_101_629
*1102 FILLER_0_101_641
*1103 FILLER_0_101_653
*1104 FILLER_0_101_665
*1105 FILLER_0_101_671
*1106 FILLER_0_101_673
*1107 FILLER_0_101_685
*1108 FILLER_0_101_69
*1109 FILLER_0_101_697
*1110 FILLER_0_101_709
*1111 FILLER_0_101_721
*1112 FILLER_0_101_727
*1113 FILLER_0_101_729
*1114 FILLER_0_101_741
*1115 FILLER_0_101_753
*1116 FILLER_0_101_765
*1117 FILLER_0_101_777
*1118 FILLER_0_101_783
*1119 FILLER_0_101_785
*1120 FILLER_0_101_797
*1121 FILLER_0_101_809
*1122 FILLER_0_101_81
*1123 FILLER_0_101_821
*1124 FILLER_0_101_833
*1125 FILLER_0_101_839
*1126 FILLER_0_101_841
*1127 FILLER_0_101_93
*1128 FILLER_0_102_109
*1129 FILLER_0_102_121
*1130 FILLER_0_102_133
*1131 FILLER_0_102_139
*1132 FILLER_0_102_141
*1133 FILLER_0_102_15
*1134 FILLER_0_102_153
*1135 FILLER_0_102_165
*1136 FILLER_0_102_177
*1137 FILLER_0_102_189
*1138 FILLER_0_102_195
*1139 FILLER_0_102_197
*1140 FILLER_0_102_209
*1141 FILLER_0_102_221
*1142 FILLER_0_102_229
*1143 FILLER_0_102_239
*1144 FILLER_0_102_251
*1145 FILLER_0_102_253
*1146 FILLER_0_102_265
*1147 FILLER_0_102_27
*1148 FILLER_0_102_277
*1149 FILLER_0_102_289
*1150 FILLER_0_102_29
*1151 FILLER_0_102_3
*1152 FILLER_0_102_301
*1153 FILLER_0_102_307
*1154 FILLER_0_102_309
*1155 FILLER_0_102_321
*1156 FILLER_0_102_333
*1157 FILLER_0_102_345
*1158 FILLER_0_102_357
*1159 FILLER_0_102_363
*1160 FILLER_0_102_365
*1161 FILLER_0_102_377
*1162 FILLER_0_102_389
*1163 FILLER_0_102_401
*1164 FILLER_0_102_41
*1165 FILLER_0_102_413
*1166 FILLER_0_102_419
*1167 FILLER_0_102_421
*1168 FILLER_0_102_433
*1169 FILLER_0_102_445
*1170 FILLER_0_102_457
*1171 FILLER_0_102_469
*1172 FILLER_0_102_475
*1173 FILLER_0_102_477
*1174 FILLER_0_102_489
*1175 FILLER_0_102_501
*1176 FILLER_0_102_509
*1177 FILLER_0_102_522
*1178 FILLER_0_102_53
*1179 FILLER_0_102_530
*1180 FILLER_0_102_533
*1181 FILLER_0_102_545
*1182 FILLER_0_102_557
*1183 FILLER_0_102_569
*1184 FILLER_0_102_581
*1185 FILLER_0_102_587
*1186 FILLER_0_102_589
*1187 FILLER_0_102_601
*1188 FILLER_0_102_613
*1189 FILLER_0_102_625
*1190 FILLER_0_102_637
*1191 FILLER_0_102_643
*1192 FILLER_0_102_645
*1193 FILLER_0_102_65
*1194 FILLER_0_102_657
*1195 FILLER_0_102_669
*1196 FILLER_0_102_681
*1197 FILLER_0_102_693
*1198 FILLER_0_102_699
*1199 FILLER_0_102_701
*1200 FILLER_0_102_713
*1201 FILLER_0_102_725
*1202 FILLER_0_102_737
*1203 FILLER_0_102_749
*1204 FILLER_0_102_755
*1205 FILLER_0_102_757
*1206 FILLER_0_102_769
*1207 FILLER_0_102_77
*1208 FILLER_0_102_781
*1209 FILLER_0_102_793
*1210 FILLER_0_102_805
*1211 FILLER_0_102_811
*1212 FILLER_0_102_813
*1213 FILLER_0_102_825
*1214 FILLER_0_102_83
*1215 FILLER_0_102_837
*1216 FILLER_0_102_841
*1217 FILLER_0_102_85
*1218 FILLER_0_102_97
*1219 FILLER_0_103_105
*1220 FILLER_0_103_111
*1221 FILLER_0_103_113
*1222 FILLER_0_103_125
*1223 FILLER_0_103_137
*1224 FILLER_0_103_149
*1225 FILLER_0_103_15
*1226 FILLER_0_103_161
*1227 FILLER_0_103_167
*1228 FILLER_0_103_169
*1229 FILLER_0_103_181
*1230 FILLER_0_103_193
*1231 FILLER_0_103_205
*1232 FILLER_0_103_217
*1233 FILLER_0_103_223
*1234 FILLER_0_103_225
*1235 FILLER_0_103_237
*1236 FILLER_0_103_249
*1237 FILLER_0_103_261
*1238 FILLER_0_103_27
*1239 FILLER_0_103_273
*1240 FILLER_0_103_279
*1241 FILLER_0_103_281
*1242 FILLER_0_103_293
*1243 FILLER_0_103_3
*1244 FILLER_0_103_305
*1245 FILLER_0_103_317
*1246 FILLER_0_103_329
*1247 FILLER_0_103_335
*1248 FILLER_0_103_337
*1249 FILLER_0_103_349
*1250 FILLER_0_103_361
*1251 FILLER_0_103_373
*1252 FILLER_0_103_385
*1253 FILLER_0_103_39
*1254 FILLER_0_103_391
*1255 FILLER_0_103_393
*1256 FILLER_0_103_405
*1257 FILLER_0_103_411
*1258 FILLER_0_103_417
*1259 FILLER_0_103_429
*1260 FILLER_0_103_441
*1261 FILLER_0_103_447
*1262 FILLER_0_103_456
*1263 FILLER_0_103_468
*1264 FILLER_0_103_480
*1265 FILLER_0_103_492
*1266 FILLER_0_103_505
*1267 FILLER_0_103_51
*1268 FILLER_0_103_517
*1269 FILLER_0_103_529
*1270 FILLER_0_103_541
*1271 FILLER_0_103_55
*1272 FILLER_0_103_553
*1273 FILLER_0_103_559
*1274 FILLER_0_103_561
*1275 FILLER_0_103_57
*1276 FILLER_0_103_573
*1277 FILLER_0_103_585
*1278 FILLER_0_103_597
*1279 FILLER_0_103_609
*1280 FILLER_0_103_615
*1281 FILLER_0_103_617
*1282 FILLER_0_103_625
*1283 FILLER_0_103_631
*1284 FILLER_0_103_643
*1285 FILLER_0_103_655
*1286 FILLER_0_103_667
*1287 FILLER_0_103_671
*1288 FILLER_0_103_673
*1289 FILLER_0_103_685
*1290 FILLER_0_103_69
*1291 FILLER_0_103_697
*1292 FILLER_0_103_709
*1293 FILLER_0_103_721
*1294 FILLER_0_103_727
*1295 FILLER_0_103_729
*1296 FILLER_0_103_743
*1297 FILLER_0_103_755
*1298 FILLER_0_103_767
*1299 FILLER_0_103_779
*1300 FILLER_0_103_783
*1301 FILLER_0_103_785
*1302 FILLER_0_103_797
*1303 FILLER_0_103_809
*1304 FILLER_0_103_81
*1305 FILLER_0_103_821
*1306 FILLER_0_103_833
*1307 FILLER_0_103_839
*1308 FILLER_0_103_841
*1309 FILLER_0_103_93
*1310 FILLER_0_104_109
*1311 FILLER_0_104_113
*1312 FILLER_0_104_120
*1313 FILLER_0_104_129
*1314 FILLER_0_104_137
*1315 FILLER_0_104_141
*1316 FILLER_0_104_145
*1317 FILLER_0_104_15
*1318 FILLER_0_104_153
*1319 FILLER_0_104_165
*1320 FILLER_0_104_177
*1321 FILLER_0_104_189
*1322 FILLER_0_104_195
*1323 FILLER_0_104_197
*1324 FILLER_0_104_209
*1325 FILLER_0_104_221
*1326 FILLER_0_104_233
*1327 FILLER_0_104_245
*1328 FILLER_0_104_251
*1329 FILLER_0_104_253
*1330 FILLER_0_104_265
*1331 FILLER_0_104_27
*1332 FILLER_0_104_277
*1333 FILLER_0_104_289
*1334 FILLER_0_104_29
*1335 FILLER_0_104_3
*1336 FILLER_0_104_301
*1337 FILLER_0_104_307
*1338 FILLER_0_104_309
*1339 FILLER_0_104_321
*1340 FILLER_0_104_333
*1341 FILLER_0_104_345
*1342 FILLER_0_104_357
*1343 FILLER_0_104_363
*1344 FILLER_0_104_371
*1345 FILLER_0_104_383
*1346 FILLER_0_104_395
*1347 FILLER_0_104_407
*1348 FILLER_0_104_41
*1349 FILLER_0_104_419
*1350 FILLER_0_104_421
*1351 FILLER_0_104_433
*1352 FILLER_0_104_445
*1353 FILLER_0_104_457
*1354 FILLER_0_104_465
*1355 FILLER_0_104_475
*1356 FILLER_0_104_477
*1357 FILLER_0_104_489
*1358 FILLER_0_104_501
*1359 FILLER_0_104_512
*1360 FILLER_0_104_524
*1361 FILLER_0_104_53
*1362 FILLER_0_104_533
*1363 FILLER_0_104_545
*1364 FILLER_0_104_557
*1365 FILLER_0_104_569
*1366 FILLER_0_104_581
*1367 FILLER_0_104_587
*1368 FILLER_0_104_589
*1369 FILLER_0_104_601
*1370 FILLER_0_104_613
*1371 FILLER_0_104_625
*1372 FILLER_0_104_637
*1373 FILLER_0_104_643
*1374 FILLER_0_104_645
*1375 FILLER_0_104_65
*1376 FILLER_0_104_657
*1377 FILLER_0_104_678
*1378 FILLER_0_104_690
*1379 FILLER_0_104_698
*1380 FILLER_0_104_701
*1381 FILLER_0_104_713
*1382 FILLER_0_104_725
*1383 FILLER_0_104_737
*1384 FILLER_0_104_749
*1385 FILLER_0_104_755
*1386 FILLER_0_104_757
*1387 FILLER_0_104_769
*1388 FILLER_0_104_77
*1389 FILLER_0_104_781
*1390 FILLER_0_104_793
*1391 FILLER_0_104_805
*1392 FILLER_0_104_811
*1393 FILLER_0_104_813
*1394 FILLER_0_104_825
*1395 FILLER_0_104_83
*1396 FILLER_0_104_837
*1397 FILLER_0_104_841
*1398 FILLER_0_104_85
*1399 FILLER_0_104_97
*1400 FILLER_0_105_113
*1401 FILLER_0_105_125
*1402 FILLER_0_105_137
*1403 FILLER_0_105_149
*1404 FILLER_0_105_15
*1405 FILLER_0_105_161
*1406 FILLER_0_105_167
*1407 FILLER_0_105_169
*1408 FILLER_0_105_181
*1409 FILLER_0_105_193
*1410 FILLER_0_105_205
*1411 FILLER_0_105_217
*1412 FILLER_0_105_223
*1413 FILLER_0_105_225
*1414 FILLER_0_105_237
*1415 FILLER_0_105_249
*1416 FILLER_0_105_261
*1417 FILLER_0_105_27
*1418 FILLER_0_105_273
*1419 FILLER_0_105_279
*1420 FILLER_0_105_281
*1421 FILLER_0_105_293
*1422 FILLER_0_105_3
*1423 FILLER_0_105_305
*1424 FILLER_0_105_317
*1425 FILLER_0_105_329
*1426 FILLER_0_105_335
*1427 FILLER_0_105_337
*1428 FILLER_0_105_349
*1429 FILLER_0_105_361
*1430 FILLER_0_105_373
*1431 FILLER_0_105_385
*1432 FILLER_0_105_39
*1433 FILLER_0_105_391
*1434 FILLER_0_105_393
*1435 FILLER_0_105_405
*1436 FILLER_0_105_417
*1437 FILLER_0_105_429
*1438 FILLER_0_105_441
*1439 FILLER_0_105_447
*1440 FILLER_0_105_449
*1441 FILLER_0_105_461
*1442 FILLER_0_105_473
*1443 FILLER_0_105_485
*1444 FILLER_0_105_497
*1445 FILLER_0_105_503
*1446 FILLER_0_105_505
*1447 FILLER_0_105_51
*1448 FILLER_0_105_517
*1449 FILLER_0_105_529
*1450 FILLER_0_105_541
*1451 FILLER_0_105_55
*1452 FILLER_0_105_553
*1453 FILLER_0_105_559
*1454 FILLER_0_105_561
*1455 FILLER_0_105_57
*1456 FILLER_0_105_573
*1457 FILLER_0_105_585
*1458 FILLER_0_105_597
*1459 FILLER_0_105_609
*1460 FILLER_0_105_615
*1461 FILLER_0_105_617
*1462 FILLER_0_105_629
*1463 FILLER_0_105_641
*1464 FILLER_0_105_653
*1465 FILLER_0_105_665
*1466 FILLER_0_105_671
*1467 FILLER_0_105_673
*1468 FILLER_0_105_685
*1469 FILLER_0_105_69
*1470 FILLER_0_105_697
*1471 FILLER_0_105_705
*1472 FILLER_0_105_715
*1473 FILLER_0_105_727
*1474 FILLER_0_105_729
*1475 FILLER_0_105_741
*1476 FILLER_0_105_753
*1477 FILLER_0_105_765
*1478 FILLER_0_105_777
*1479 FILLER_0_105_783
*1480 FILLER_0_105_785
*1481 FILLER_0_105_797
*1482 FILLER_0_105_809
*1483 FILLER_0_105_81
*1484 FILLER_0_105_821
*1485 FILLER_0_105_833
*1486 FILLER_0_105_839
*1487 FILLER_0_105_841
*1488 FILLER_0_105_93
*1489 FILLER_0_106_109
*1490 FILLER_0_106_121
*1491 FILLER_0_106_133
*1492 FILLER_0_106_139
*1493 FILLER_0_106_141
*1494 FILLER_0_106_15
*1495 FILLER_0_106_153
*1496 FILLER_0_106_165
*1497 FILLER_0_106_177
*1498 FILLER_0_106_189
*1499 FILLER_0_106_195
*1500 FILLER_0_106_197
*1501 FILLER_0_106_209
*1502 FILLER_0_106_221
*1503 FILLER_0_106_233
*1504 FILLER_0_106_245
*1505 FILLER_0_106_251
*1506 FILLER_0_106_253
*1507 FILLER_0_106_265
*1508 FILLER_0_106_27
*1509 FILLER_0_106_277
*1510 FILLER_0_106_289
*1511 FILLER_0_106_29
*1512 FILLER_0_106_3
*1513 FILLER_0_106_301
*1514 FILLER_0_106_307
*1515 FILLER_0_106_309
*1516 FILLER_0_106_315
*1517 FILLER_0_106_323
*1518 FILLER_0_106_335
*1519 FILLER_0_106_347
*1520 FILLER_0_106_359
*1521 FILLER_0_106_363
*1522 FILLER_0_106_365
*1523 FILLER_0_106_377
*1524 FILLER_0_106_389
*1525 FILLER_0_106_401
*1526 FILLER_0_106_41
*1527 FILLER_0_106_413
*1528 FILLER_0_106_419
*1529 FILLER_0_106_421
*1530 FILLER_0_106_433
*1531 FILLER_0_106_445
*1532 FILLER_0_106_457
*1533 FILLER_0_106_469
*1534 FILLER_0_106_475
*1535 FILLER_0_106_477
*1536 FILLER_0_106_489
*1537 FILLER_0_106_501
*1538 FILLER_0_106_513
*1539 FILLER_0_106_525
*1540 FILLER_0_106_53
*1541 FILLER_0_106_531
*1542 FILLER_0_106_533
*1543 FILLER_0_106_545
*1544 FILLER_0_106_562
*1545 FILLER_0_106_574
*1546 FILLER_0_106_586
*1547 FILLER_0_106_589
*1548 FILLER_0_106_601
*1549 FILLER_0_106_613
*1550 FILLER_0_106_625
*1551 FILLER_0_106_637
*1552 FILLER_0_106_643
*1553 FILLER_0_106_645
*1554 FILLER_0_106_65
*1555 FILLER_0_106_657
*1556 FILLER_0_106_669
*1557 FILLER_0_106_681
*1558 FILLER_0_106_693
*1559 FILLER_0_106_699
*1560 FILLER_0_106_701
*1561 FILLER_0_106_713
*1562 FILLER_0_106_725
*1563 FILLER_0_106_737
*1564 FILLER_0_106_749
*1565 FILLER_0_106_755
*1566 FILLER_0_106_757
*1567 FILLER_0_106_769
*1568 FILLER_0_106_77
*1569 FILLER_0_106_781
*1570 FILLER_0_106_793
*1571 FILLER_0_106_805
*1572 FILLER_0_106_811
*1573 FILLER_0_106_813
*1574 FILLER_0_106_825
*1575 FILLER_0_106_83
*1576 FILLER_0_106_837
*1577 FILLER_0_106_841
*1578 FILLER_0_106_85
*1579 FILLER_0_106_97
*1580 FILLER_0_107_105
*1581 FILLER_0_107_111
*1582 FILLER_0_107_113
*1583 FILLER_0_107_119
*1584 FILLER_0_107_126
*1585 FILLER_0_107_138
*1586 FILLER_0_107_15
*1587 FILLER_0_107_150
*1588 FILLER_0_107_157
*1589 FILLER_0_107_165
*1590 FILLER_0_107_169
*1591 FILLER_0_107_173
*1592 FILLER_0_107_182
*1593 FILLER_0_107_194
*1594 FILLER_0_107_206
*1595 FILLER_0_107_218
*1596 FILLER_0_107_225
*1597 FILLER_0_107_237
*1598 FILLER_0_107_249
*1599 FILLER_0_107_261
*1600 FILLER_0_107_27
*1601 FILLER_0_107_273
*1602 FILLER_0_107_279
*1603 FILLER_0_107_281
*1604 FILLER_0_107_293
*1605 FILLER_0_107_3
*1606 FILLER_0_107_305
*1607 FILLER_0_107_317
*1608 FILLER_0_107_329
*1609 FILLER_0_107_335
*1610 FILLER_0_107_337
*1611 FILLER_0_107_349
*1612 FILLER_0_107_361
*1613 FILLER_0_107_373
*1614 FILLER_0_107_385
*1615 FILLER_0_107_39
*1616 FILLER_0_107_391
*1617 FILLER_0_107_393
*1618 FILLER_0_107_405
*1619 FILLER_0_107_417
*1620 FILLER_0_107_429
*1621 FILLER_0_107_441
*1622 FILLER_0_107_447
*1623 FILLER_0_107_449
*1624 FILLER_0_107_461
*1625 FILLER_0_107_473
*1626 FILLER_0_107_485
*1627 FILLER_0_107_497
*1628 FILLER_0_107_503
*1629 FILLER_0_107_505
*1630 FILLER_0_107_51
*1631 FILLER_0_107_517
*1632 FILLER_0_107_529
*1633 FILLER_0_107_541
*1634 FILLER_0_107_55
*1635 FILLER_0_107_553
*1636 FILLER_0_107_559
*1637 FILLER_0_107_561
*1638 FILLER_0_107_57
*1639 FILLER_0_107_573
*1640 FILLER_0_107_585
*1641 FILLER_0_107_597
*1642 FILLER_0_107_609
*1643 FILLER_0_107_615
*1644 FILLER_0_107_617
*1645 FILLER_0_107_629
*1646 FILLER_0_107_641
*1647 FILLER_0_107_653
*1648 FILLER_0_107_666
*1649 FILLER_0_107_673
*1650 FILLER_0_107_685
*1651 FILLER_0_107_69
*1652 FILLER_0_107_697
*1653 FILLER_0_107_709
*1654 FILLER_0_107_721
*1655 FILLER_0_107_727
*1656 FILLER_0_107_729
*1657 FILLER_0_107_741
*1658 FILLER_0_107_753
*1659 FILLER_0_107_765
*1660 FILLER_0_107_777
*1661 FILLER_0_107_783
*1662 FILLER_0_107_785
*1663 FILLER_0_107_797
*1664 FILLER_0_107_809
*1665 FILLER_0_107_81
*1666 FILLER_0_107_821
*1667 FILLER_0_107_833
*1668 FILLER_0_107_839
*1669 FILLER_0_107_841
*1670 FILLER_0_107_93
*1671 FILLER_0_108_107
*1672 FILLER_0_108_116
*1673 FILLER_0_108_128
*1674 FILLER_0_108_141
*1675 FILLER_0_108_15
*1676 FILLER_0_108_153
*1677 FILLER_0_108_165
*1678 FILLER_0_108_177
*1679 FILLER_0_108_189
*1680 FILLER_0_108_195
*1681 FILLER_0_108_197
*1682 FILLER_0_108_209
*1683 FILLER_0_108_221
*1684 FILLER_0_108_233
*1685 FILLER_0_108_245
*1686 FILLER_0_108_251
*1687 FILLER_0_108_253
*1688 FILLER_0_108_265
*1689 FILLER_0_108_27
*1690 FILLER_0_108_277
*1691 FILLER_0_108_289
*1692 FILLER_0_108_29
*1693 FILLER_0_108_3
*1694 FILLER_0_108_301
*1695 FILLER_0_108_307
*1696 FILLER_0_108_309
*1697 FILLER_0_108_321
*1698 FILLER_0_108_333
*1699 FILLER_0_108_345
*1700 FILLER_0_108_357