*SPEF "ieee 1481-1999"
*DESIGN "alu"
*DATE "11:11:11 Fri 11 11, 1111"
*VENDOR "OpenRCX"
*PROGRAM "Parallel Extraction"
*VERSION "1.0"
*DESIGN_FLOW "NAME_SCOPE LOCAL" "PIN_CAP NONE"
*DIVIDER /
*DELIMITER :
*BUS_DELIMITER []
*T_UNIT 1 NS
*C_UNIT 1 PF
*R_UNIT 1 OHM
*L_UNIT 1 HENRY

*NAME_MAP
*1 A[0]
*2 A[1]
*3 A[2]
*4 A[3]
*5 A[4]
*6 A[5]
*7 A[6]
*8 A[7]
*9 B[0]
*10 B[1]
*11 B[2]
*12 B[3]
*13 B[4]
*14 B[5]
*15 B[6]
*16 B[7]
*19 Y[0]
*20 Y[10]
*21 Y[11]
*22 Y[12]
*23 Y[13]
*24 Y[14]
*25 Y[15]
*26 Y[1]
*27 Y[2]
*28 Y[3]
*29 Y[4]
*30 Y[5]
*31 Y[6]
*32 Y[7]
*33 Y[8]
*34 Y[9]
*35 op[0]
*36 op[1]
*37 op[2]
*38 _0000_
*39 _0001_
*40 _0002_
*41 _0003_
*42 _0004_
*43 _0005_
*44 _0006_
*45 _0007_
*46 _0008_
*47 _0009_
*48 _0010_
*49 _0011_
*50 _0012_
*51 _0013_
*52 _0014_
*53 _0015_
*54 _0016_
*55 _0017_
*56 _0018_
*57 _0019_
*58 _0020_
*59 _0021_
*60 _0022_
*61 _0023_
*62 _0024_
*63 _0025_
*64 _0026_
*65 _0027_
*66 _0028_
*67 _0029_
*68 _0030_
*69 _0031_
*70 _0032_
*71 _0033_
*72 _0034_
*73 _0035_
*74 _0036_
*75 _0037_
*76 _0038_
*77 _0039_
*78 _0040_
*79 _0041_
*80 _0042_
*81 _0043_
*82 _0044_
*83 _0045_
*84 _0046_
*85 _0047_
*86 _0048_
*87 _0049_
*88 _0050_
*89 _0051_
*90 _0052_
*91 _0053_
*92 _0054_
*93 _0055_
*94 _0056_
*95 _0057_
*96 _0058_
*97 _0059_
*98 _0060_
*99 _0061_
*100 _0062_
*101 _0063_
*102 _0064_
*103 _0065_
*104 _0066_
*105 _0067_
*106 _0068_
*107 _0069_
*108 _0070_
*109 _0071_
*110 _0072_
*111 _0073_
*112 _0074_
*113 _0075_
*114 _0076_
*115 _0077_
*116 _0078_
*117 _0079_
*118 _0080_
*119 _0081_
*120 _0082_
*121 _0083_
*122 _0084_
*123 _0085_
*124 _0086_
*125 _0087_
*126 _0088_
*127 _0089_
*128 _0090_
*129 _0091_
*130 _0092_
*131 _0093_
*132 _0094_
*133 _0095_
*134 _0096_
*135 _0097_
*136 _0098_
*137 _0099_
*138 _0100_
*139 _0101_
*140 _0102_
*141 _0103_
*142 _0104_
*143 _0105_
*144 _0106_
*145 _0107_
*146 _0108_
*147 _0109_
*148 _0110_
*149 _0111_
*150 _0112_
*151 _0113_
*152 _0114_
*153 _0115_
*154 _0116_
*155 _0117_
*156 _0118_
*157 _0119_
*158 _0120_
*159 _0121_
*160 _0122_
*161 _0123_
*162 _0124_
*163 _0125_
*164 _0126_
*165 _0127_
*166 _0128_
*167 _0129_
*168 _0130_
*169 _0131_
*170 _0132_
*171 _0133_
*172 _0134_
*173 _0135_
*174 _0136_
*175 _0137_
*176 _0138_
*177 _0139_
*178 _0140_
*179 _0141_
*180 _0142_
*181 _0143_
*182 _0144_
*183 _0145_
*184 _0146_
*185 _0147_
*186 _0148_
*187 _0149_
*188 _0150_
*189 _0151_
*190 _0152_
*191 _0153_
*192 _0154_
*193 _0155_
*194 _0156_
*195 _0157_
*196 _0158_
*197 _0159_
*198 _0160_
*199 _0161_
*200 _0162_
*201 _0163_
*202 _0164_
*203 _0165_
*204 _0166_
*205 _0167_
*206 _0168_
*207 _0169_
*208 _0170_
*209 _0171_
*210 _0172_
*211 _0173_
*212 _0174_
*213 _0175_
*214 _0176_
*215 _0177_
*216 _0178_
*217 _0179_
*218 _0180_
*219 _0181_
*220 _0182_
*221 _0183_
*222 _0184_
*223 _0185_
*224 _0186_
*225 _0187_
*226 _0188_
*227 _0189_
*228 _0190_
*229 _0191_
*230 _0192_
*231 _0193_
*232 _0194_
*233 _0195_
*234 _0196_
*235 _0197_
*236 _0198_
*237 _0199_
*238 _0200_
*239 _0201_
*240 _0202_
*241 _0203_
*242 _0204_
*243 _0205_
*244 _0206_
*245 _0207_
*246 _0208_
*247 _0209_
*248 _0210_
*249 _0211_
*250 _0212_
*251 _0213_
*252 _0214_
*253 _0215_
*254 _0216_
*255 _0217_
*256 _0218_
*257 _0219_
*258 _0220_
*259 _0221_
*260 _0222_
*261 _0223_
*262 _0224_
*263 _0225_
*264 _0226_
*265 _0227_
*266 _0228_
*267 _0229_
*268 _0230_
*269 _0231_
*270 _0232_
*271 _0233_
*272 _0234_
*273 _0235_
*274 _0236_
*275 _0237_
*276 _0238_
*277 _0239_
*278 _0240_
*279 _0241_
*280 _0242_
*281 _0243_
*282 _0244_
*283 _0245_
*284 _0246_
*285 _0247_
*286 _0248_
*287 _0249_
*288 _0250_
*289 _0251_
*290 _0252_
*291 _0253_
*292 _0254_
*293 _0255_
*294 _0256_
*295 _0257_
*296 _0258_
*297 _0259_
*298 _0260_
*299 _0261_
*300 _0262_
*301 _0263_
*302 _0264_
*303 _0265_
*304 _0266_
*305 _0267_
*306 _0268_
*307 _0269_
*308 _0270_
*309 _0271_
*310 _0272_
*311 _0273_
*312 _0274_
*313 _0275_
*314 _0276_
*315 _0277_
*316 _0278_
*317 _0279_
*318 _0280_
*319 _0281_
*320 _0282_
*321 _0283_
*322 _0284_
*323 _0285_
*324 _0286_
*325 _0287_
*326 _0288_
*327 _0289_
*328 _0290_
*329 _0291_
*330 _0292_
*331 _0293_
*332 _0294_
*333 _0295_
*334 _0296_
*335 _0297_
*336 _0298_
*337 _0299_
*338 _0300_
*339 _0301_
*340 _0302_
*341 _0303_
*342 _0304_
*343 _0305_
*344 _0306_
*345 _0307_
*346 _0308_
*347 _0309_
*348 _0310_
*349 _0311_
*350 _0312_
*351 _0313_
*352 _0314_
*353 _0315_
*354 _0316_
*355 _0317_
*356 _0318_
*357 _0319_
*358 _0320_
*359 _0321_
*360 _0322_
*361 _0323_
*362 _0324_
*363 _0325_
*364 _0326_
*365 _0327_
*366 _0328_
*367 _0329_
*368 _0330_
*369 _0331_
*370 _0332_
*371 _0333_
*372 _0334_
*373 _0335_
*374 _0336_
*375 _0337_
*376 _0338_
*377 _0339_
*378 _0340_
*379 _0341_
*380 _0342_
*381 _0343_
*382 _0344_
*383 _0345_
*384 _0346_
*385 _0347_
*386 _0348_
*387 _0349_
*388 _0350_
*389 _0351_
*390 _0352_
*391 _0353_
*392 _0354_
*393 _0355_
*394 _0356_
*395 _0357_
*396 _0358_
*397 _0359_
*398 _0360_
*399 _0361_
*400 _0362_
*401 _0363_
*402 _0364_
*403 _0365_
*404 _0366_
*405 _0367_
*406 _0368_
*407 _0369_
*408 _0370_
*409 _0371_
*410 _0372_
*411 _0373_
*412 _0374_
*413 _0375_
*414 _0376_
*415 _0377_
*416 _0378_
*417 _0379_
*418 _0380_
*419 _0381_
*420 _0382_
*421 _0383_
*422 _0384_
*423 _0385_
*424 _0386_
*425 _0387_
*426 _0388_
*427 _0389_
*428 _0390_
*429 _0391_
*430 _0392_
*431 _0393_
*432 _0394_
*433 _0395_
*434 _0396_
*435 _0397_
*436 _0398_
*437 _0399_
*438 _0400_
*439 _0401_
*440 _0402_
*441 _0403_
*442 _0404_
*443 _0405_
*444 _0406_
*445 _0407_
*446 _0408_
*447 _0409_
*448 _0410_
*449 _0411_
*450 _0412_
*451 _0413_
*452 _0414_
*453 _0415_
*454 _0416_
*455 _0417_
*456 _0418_
*457 _0419_
*458 _0420_
*459 _0421_
*460 _0422_
*461 _0423_
*462 _0424_
*463 _0425_
*464 _0426_
*465 _0427_
*466 _0428_
*467 _0429_
*468 _0430_
*469 _0431_
*470 _0432_
*471 _0433_
*472 _0434_
*473 _0435_
*474 _0436_
*475 _0437_
*476 _0438_
*477 _0439_
*478 _0440_
*479 _0441_
*480 _0442_
*481 _0443_
*482 _0444_
*483 _0445_
*484 _0446_
*485 _0447_
*486 _0448_
*487 _0449_
*488 _0450_
*489 _0451_
*490 _0452_
*491 _0453_
*492 _0454_
*493 _0455_
*494 _0456_
*495 _0457_
*496 _0458_
*497 _0459_
*498 _0460_
*499 _0461_
*500 _0462_
*501 _0463_
*502 _0464_
*503 _0465_
*504 _0466_
*505 _0467_
*506 _0468_
*507 _0469_
*508 _0470_
*509 _0471_
*510 _0472_
*511 _0473_
*512 _0474_
*513 _0475_
*514 _0476_
*515 _0477_
*516 _0478_
*517 _0479_
*518 _0480_
*519 _0481_
*520 _0482_
*521 _0483_
*522 _0484_
*523 _0485_
*524 _0486_
*525 _0487_
*526 _0488_
*527 _0489_
*528 _0490_
*529 _0491_
*530 _0492_
*531 _0493_
*532 _0494_
*533 _0495_
*534 _0496_
*535 _0497_
*536 _0498_
*537 _0499_
*538 _0500_
*539 _0501_
*540 _0502_
*541 _0503_
*542 _0504_
*543 _0505_
*544 _0506_
*545 _0507_
*546 _0508_
*547 _0509_
*548 _0510_
*549 _0511_
*550 _0512_
*551 _0513_
*552 _0514_
*553 _0515_
*554 _0516_
*555 _0517_
*556 _0518_
*557 _0519_
*558 _0520_
*559 _0521_
*560 _0522_
*561 _0523_
*562 _0524_
*563 _0525_
*564 _0526_
*565 _0527_
*566 _0528_
*567 _0529_
*568 _0530_
*569 _0531_
*570 _0532_
*571 _0533_
*572 _0534_
*573 _0535_
*574 _0536_
*575 _0537_
*576 _0538_
*577 _0539_
*578 _0540_
*579 _0541_
*580 _0542_
*581 _0543_
*582 _0544_
*583 _0545_
*584 _0546_
*585 _0547_
*586 _0548_
*587 _0549_
*588 _0550_
*589 _0551_
*590 _0552_
*591 _0553_
*592 _0554_
*593 _0555_
*594 _0556_
*595 _0557_
*596 _0558_
*597 _0559_
*598 _0560_
*599 _0561_
*600 _0562_
*601 _0563_
*602 _0564_
*603 _0565_
*604 _0566_
*605 _0567_
*606 _0568_
*607 _0569_
*608 _0570_
*609 _0571_
*610 _0572_
*611 _0573_
*612 _0574_
*613 _0575_
*614 _0576_
*615 _0577_
*616 _0578_
*617 _0579_
*618 _0580_
*619 _0581_
*620 _0582_
*621 _0583_
*622 _0584_
*623 _0585_
*624 _0586_
*625 _0587_
*626 _0588_
*627 _0589_
*628 _0590_
*629 _0591_
*630 _0592_
*631 _0593_
*632 _0594_
*633 _0595_
*634 _0596_
*635 _0597_
*636 _0598_
*637 _0599_
*638 _0600_
*639 _0601_
*640 _0602_
*641 _0603_
*642 _0604_
*643 _0605_
*644 _0606_
*645 _0607_
*646 _0608_
*647 _0609_
*648 _0610_
*649 _0611_
*650 _0612_
*651 _0613_
*652 _0614_
*653 _0615_
*654 _0616_
*655 _0617_
*656 _0618_
*657 _0619_
*658 _0620_
*659 _0621_
*660 _0622_
*661 _0623_
*662 _0624_
*663 _0625_
*664 _0626_
*665 _0627_
*666 _0628_
*667 _0629_
*668 _0630_
*669 _0631_
*670 _0632_
*671 _0633_
*672 _0634_
*673 _0635_
*674 _0636_
*675 _0637_
*676 _0638_
*677 _0639_
*678 _0640_
*679 _0641_
*680 _0642_
*681 _0643_
*682 _0644_
*683 _0645_
*684 _0646_
*685 _0647_
*686 _0648_
*687 _0649_
*688 _0650_
*689 _0651_
*690 _0652_
*691 _0653_
*692 net1
*693 net10
*694 net11
*695 net12
*696 net13
*697 net14
*698 net15
*699 net16
*700 net17
*701 net18
*702 net19
*703 net2
*704 net20
*705 net21
*706 net22
*707 net23
*708 net24
*709 net25
*710 net26
*711 net27
*712 net28
*713 net29
*714 net3
*715 net30
*716 net31
*717 net32
*718 net33
*719 net34
*720 net35
*721 net36
*722 net37
*723 net38
*724 net39
*725 net4
*726 net40
*727 net41
*728 net42
*729 net43
*730 net44
*731 net45
*732 net46
*733 net47
*734 net48
*735 net49
*736 net5
*737 net50
*738 net51
*739 net52
*740 net53
*741 net54
*742 net55
*743 net56
*744 net57
*745 net58
*746 net59
*747 net6
*748 net60
*749 net61
*750 net62
*751 net7
*752 net8
*753 net9
*754 ANTENNA_1
*755 ANTENNA_10
*756 ANTENNA_100
*757 ANTENNA_101
*758 ANTENNA_102
*759 ANTENNA_103
*760 ANTENNA_11
*761 ANTENNA_12
*762 ANTENNA_13
*763 ANTENNA_14
*764 ANTENNA_15
*765 ANTENNA_16
*766 ANTENNA_17
*767 ANTENNA_18
*768 ANTENNA_19
*769 ANTENNA_2
*770 ANTENNA_20
*771 ANTENNA_21
*772 ANTENNA_22
*773 ANTENNA_23
*774 ANTENNA_24
*775 ANTENNA_25
*776 ANTENNA_26
*777 ANTENNA_27
*778 ANTENNA_28
*779 ANTENNA_29
*780 ANTENNA_3
*781 ANTENNA_30
*782 ANTENNA_31
*783 ANTENNA_32
*784 ANTENNA_33
*785 ANTENNA_34
*786 ANTENNA_35
*787 ANTENNA_36
*788 ANTENNA_37
*789 ANTENNA_38
*790 ANTENNA_39
*791 ANTENNA_4
*792 ANTENNA_40
*793 ANTENNA_41
*794 ANTENNA_42
*795 ANTENNA_43
*796 ANTENNA_44
*797 ANTENNA_45
*798 ANTENNA_46
*799 ANTENNA_47
*800 ANTENNA_48
*801 ANTENNA_49
*802 ANTENNA_5
*803 ANTENNA_50
*804 ANTENNA_51
*805 ANTENNA_52
*806 ANTENNA_53
*807 ANTENNA_54
*808 ANTENNA_55
*809 ANTENNA_56
*810 ANTENNA_57
*811 ANTENNA_58
*812 ANTENNA_59
*813 ANTENNA_6
*814 ANTENNA_60
*815 ANTENNA_61
*816 ANTENNA_62
*817 ANTENNA_63
*818 ANTENNA_64
*819 ANTENNA_65
*820 ANTENNA_66
*821 ANTENNA_67
*822 ANTENNA_68
*823 ANTENNA_69
*824 ANTENNA_7
*825 ANTENNA_70
*826 ANTENNA_71
*827 ANTENNA_72
*828 ANTENNA_73
*829 ANTENNA_74
*830 ANTENNA_75
*831 ANTENNA_76
*832 ANTENNA_77
*833 ANTENNA_78
*834 ANTENNA_79
*835 ANTENNA_8
*836 ANTENNA_80
*837 ANTENNA_81
*838 ANTENNA_82
*839 ANTENNA_83
*840 ANTENNA_84
*841 ANTENNA_85
*842 ANTENNA_86
*843 ANTENNA_87
*844 ANTENNA_88
*845 ANTENNA_89
*846 ANTENNA_9
*847 ANTENNA_90
*848 ANTENNA_91
*849 ANTENNA_92
*850 ANTENNA_93
*851 ANTENNA_94
*852 ANTENNA_95
*853 ANTENNA_96
*854 ANTENNA_97
*855 ANTENNA_98
*856 ANTENNA_99
*857 FILLER_0_0_109
*858 FILLER_0_0_113
*859 FILLER_0_0_121
*860 FILLER_0_0_124
*861 FILLER_0_0_132
*862 FILLER_0_0_136
*863 FILLER_0_0_141
*864 FILLER_0_0_15
*865 FILLER_0_0_153
*866 FILLER_0_0_165
*867 FILLER_0_0_169
*868 FILLER_0_0_181
*869 FILLER_0_0_193
*870 FILLER_0_0_197
*871 FILLER_0_0_209
*872 FILLER_0_0_221
*873 FILLER_0_0_225
*874 FILLER_0_0_237
*875 FILLER_0_0_249
*876 FILLER_0_0_253
*877 FILLER_0_0_265
*878 FILLER_0_0_27
*879 FILLER_0_0_277
*880 FILLER_0_0_281
*881 FILLER_0_0_29
*882 FILLER_0_0_293
*883 FILLER_0_0_3
*884 FILLER_0_0_305
*885 FILLER_0_0_309
*886 FILLER_0_0_321
*887 FILLER_0_0_333
*888 FILLER_0_0_337
*889 FILLER_0_0_349
*890 FILLER_0_0_361
*891 FILLER_0_0_365
*892 FILLER_0_0_377
*893 FILLER_0_0_389
*894 FILLER_0_0_393
*895 FILLER_0_0_405
*896 FILLER_0_0_41
*897 FILLER_0_0_417
*898 FILLER_0_0_421
*899 FILLER_0_0_433
*900 FILLER_0_0_445
*901 FILLER_0_0_449
*902 FILLER_0_0_461
*903 FILLER_0_0_473
*904 FILLER_0_0_477
*905 FILLER_0_0_489
*906 FILLER_0_0_493
*907 FILLER_0_0_497
*908 FILLER_0_0_503
*909 FILLER_0_0_505
*910 FILLER_0_0_517
*911 FILLER_0_0_529
*912 FILLER_0_0_53
*913 FILLER_0_0_533
*914 FILLER_0_0_545
*915 FILLER_0_0_557
*916 FILLER_0_0_57
*917 FILLER_0_0_577
*918 FILLER_0_0_585
*919 FILLER_0_0_589
*920 FILLER_0_0_601
*921 FILLER_0_0_613
*922 FILLER_0_0_617
*923 FILLER_0_0_69
*924 FILLER_0_0_81
*925 FILLER_0_0_85
*926 FILLER_0_0_97
*927 FILLER_0_100_109
*928 FILLER_0_100_121
*929 FILLER_0_100_133
*930 FILLER_0_100_139
*931 FILLER_0_100_141
*932 FILLER_0_100_15
*933 FILLER_0_100_156
*934 FILLER_0_100_168
*935 FILLER_0_100_180
*936 FILLER_0_100_192
*937 FILLER_0_100_197
*938 FILLER_0_100_209
*939 FILLER_0_100_221
*940 FILLER_0_100_233
*941 FILLER_0_100_245
*942 FILLER_0_100_251
*943 FILLER_0_100_253
*944 FILLER_0_100_265
*945 FILLER_0_100_27
*946 FILLER_0_100_277
*947 FILLER_0_100_289
*948 FILLER_0_100_29
*949 FILLER_0_100_3
*950 FILLER_0_100_309
*951 FILLER_0_100_321
*952 FILLER_0_100_333
*953 FILLER_0_100_345
*954 FILLER_0_100_357
*955 FILLER_0_100_363
*956 FILLER_0_100_365
*957 FILLER_0_100_384
*958 FILLER_0_100_396
*959 FILLER_0_100_408
*960 FILLER_0_100_41
*961 FILLER_0_100_421
*962 FILLER_0_100_433
*963 FILLER_0_100_445
*964 FILLER_0_100_457
*965 FILLER_0_100_469
*966 FILLER_0_100_475
*967 FILLER_0_100_477
*968 FILLER_0_100_489
*969 FILLER_0_100_501
*970 FILLER_0_100_513
*971 FILLER_0_100_525
*972 FILLER_0_100_53
*973 FILLER_0_100_531
*974 FILLER_0_100_533
*975 FILLER_0_100_545
*976 FILLER_0_100_557
*977 FILLER_0_100_569
*978 FILLER_0_100_581
*979 FILLER_0_100_587
*980 FILLER_0_100_589
*981 FILLER_0_100_601
*982 FILLER_0_100_613
*983 FILLER_0_100_65
*984 FILLER_0_100_77
*985 FILLER_0_100_83
*986 FILLER_0_100_85
*987 FILLER_0_100_97
*988 FILLER_0_101_103
*989 FILLER_0_101_111
*990 FILLER_0_101_113
*991 FILLER_0_101_125
*992 FILLER_0_101_137
*993 FILLER_0_101_141
*994 FILLER_0_101_153
*995 FILLER_0_101_165
*996 FILLER_0_101_169
*997 FILLER_0_101_181
*998 FILLER_0_101_193
*999 FILLER_0_101_197
*1000 FILLER_0_101_209
*1001 FILLER_0_101_21
*1002 FILLER_0_101_221
*1003 FILLER_0_101_225
*1004 FILLER_0_101_237
*1005 FILLER_0_101_253
*1006 FILLER_0_101_265
*1007 FILLER_0_101_27
*1008 FILLER_0_101_277
*1009 FILLER_0_101_281
*1010 FILLER_0_101_29
*1011 FILLER_0_101_293
*1012 FILLER_0_101_305
*1013 FILLER_0_101_309
*1014 FILLER_0_101_321
*1015 FILLER_0_101_333
*1016 FILLER_0_101_337
*1017 FILLER_0_101_349
*1018 FILLER_0_101_361
*1019 FILLER_0_101_365
*1020 FILLER_0_101_377
*1021 FILLER_0_101_389
*1022 FILLER_0_101_41
*1023 FILLER_0_101_415
*1024 FILLER_0_101_419
*1025 FILLER_0_101_421
*1026 FILLER_0_101_433
*1027 FILLER_0_101_445
*1028 FILLER_0_101_449
*1029 FILLER_0_101_461
*1030 FILLER_0_101_473
*1031 FILLER_0_101_477
*1032 FILLER_0_101_489
*1033 FILLER_0_101_501
*1034 FILLER_0_101_508
*1035 FILLER_0_101_520
*1036 FILLER_0_101_53
*1037 FILLER_0_101_540
*1038 FILLER_0_101_552
*1039 FILLER_0_101_561
*1040 FILLER_0_101_57
*1041 FILLER_0_101_573
*1042 FILLER_0_101_585
*1043 FILLER_0_101_589
*1044 FILLER_0_101_601
*1045 FILLER_0_101_613
*1046 FILLER_0_101_617
*1047 FILLER_0_101_69
*1048 FILLER_0_101_81
*1049 FILLER_0_101_85
*1050 FILLER_0_101_9
*1051 FILLER_0_101_93
*1052 FILLER_0_10_109
*1053 FILLER_0_10_121
*1054 FILLER_0_10_133
*1055 FILLER_0_10_139
*1056 FILLER_0_10_141
*1057 FILLER_0_10_153
*1058 FILLER_0_10_165
*1059 FILLER_0_10_177
*1060 FILLER_0_10_189
*1061 FILLER_0_10_195
*1062 FILLER_0_10_197
*1063 FILLER_0_10_209
*1064 FILLER_0_10_221
*1065 FILLER_0_10_229
*1066 FILLER_0_10_245
*1067 FILLER_0_10_251
*1068 FILLER_0_10_253
*1069 FILLER_0_10_26
*1070 FILLER_0_10_261
*1071 FILLER_0_10_29
*1072 FILLER_0_10_293
*1073 FILLER_0_10_3
*1074 FILLER_0_10_305
*1075 FILLER_0_10_309
*1076 FILLER_0_10_321
*1077 FILLER_0_10_333
*1078 FILLER_0_10_345
*1079 FILLER_0_10_353
*1080 FILLER_0_10_363
*1081 FILLER_0_10_365
*1082 FILLER_0_10_373
*1083 FILLER_0_10_382
*1084 FILLER_0_10_394
*1085 FILLER_0_10_406
*1086 FILLER_0_10_41
*1087 FILLER_0_10_418
*1088 FILLER_0_10_421
*1089 FILLER_0_10_433
*1090 FILLER_0_10_459
*1091 FILLER_0_10_471
*1092 FILLER_0_10_475
*1093 FILLER_0_10_477
*1094 FILLER_0_10_489
*1095 FILLER_0_10_495
*1096 FILLER_0_10_499
*1097 FILLER_0_10_513
*1098 FILLER_0_10_525
*1099 FILLER_0_10_53
*1100 FILLER_0_10_531
*1101 FILLER_0_10_533
*1102 FILLER_0_10_545
*1103 FILLER_0_10_557
*1104 FILLER_0_10_569
*1105 FILLER_0_10_581
*1106 FILLER_0_10_587
*1107 FILLER_0_10_589
*1108 FILLER_0_10_601
*1109 FILLER_0_10_613
*1110 FILLER_0_10_65
*1111 FILLER_0_10_77
*1112 FILLER_0_10_83
*1113 FILLER_0_10_85
*1114 FILLER_0_10_9
*1115 FILLER_0_10_97
*1116 FILLER_0_11_105
*1117 FILLER_0_11_111
*1118 FILLER_0_11_113
*1119 FILLER_0_11_125
*1120 FILLER_0_11_137
*1121 FILLER_0_11_149
*1122 FILLER_0_11_15
*1123 FILLER_0_11_161
*1124 FILLER_0_11_167
*1125 FILLER_0_11_169
*1126 FILLER_0_11_182
*1127 FILLER_0_11_194
*1128 FILLER_0_11_206
*1129 FILLER_0_11_218
*1130 FILLER_0_11_225
*1131 FILLER_0_11_250
*1132 FILLER_0_11_27
*1133 FILLER_0_11_271
*1134 FILLER_0_11_279
*1135 FILLER_0_11_281
*1136 FILLER_0_11_3
*1137 FILLER_0_11_305
*1138 FILLER_0_11_317
*1139 FILLER_0_11_329
*1140 FILLER_0_11_335
*1141 FILLER_0_11_337
*1142 FILLER_0_11_349
*1143 FILLER_0_11_361
*1144 FILLER_0_11_373
*1145 FILLER_0_11_385
*1146 FILLER_0_11_39
*1147 FILLER_0_11_391
*1148 FILLER_0_11_393
*1149 FILLER_0_11_407
*1150 FILLER_0_11_419
*1151 FILLER_0_11_431
*1152 FILLER_0_11_439
*1153 FILLER_0_11_447
*1154 FILLER_0_11_449
*1155 FILLER_0_11_453
*1156 FILLER_0_11_466
*1157 FILLER_0_11_478
*1158 FILLER_0_11_490
*1159 FILLER_0_11_502
*1160 FILLER_0_11_505
*1161 FILLER_0_11_51
*1162 FILLER_0_11_517
*1163 FILLER_0_11_529
*1164 FILLER_0_11_541
*1165 FILLER_0_11_55
*1166 FILLER_0_11_553
*1167 FILLER_0_11_559
*1168 FILLER_0_11_561
*1169 FILLER_0_11_567
*1170 FILLER_0_11_57
*1171 FILLER_0_11_581
*1172 FILLER_0_11_593
*1173 FILLER_0_11_617
*1174 FILLER_0_11_69
*1175 FILLER_0_11_81
*1176 FILLER_0_11_93
*1177 FILLER_0_12_10
*1178 FILLER_0_12_103
*1179 FILLER_0_12_115
*1180 FILLER_0_12_127
*1181 FILLER_0_12_139
*1182 FILLER_0_12_14
*1183 FILLER_0_12_141
*1184 FILLER_0_12_153
*1185 FILLER_0_12_165
*1186 FILLER_0_12_177
*1187 FILLER_0_12_185
*1188 FILLER_0_12_195
*1189 FILLER_0_12_197
*1190 FILLER_0_12_209
*1191 FILLER_0_12_221
*1192 FILLER_0_12_233
*1193 FILLER_0_12_237
*1194 FILLER_0_12_253
*1195 FILLER_0_12_26
*1196 FILLER_0_12_265
*1197 FILLER_0_12_277
*1198 FILLER_0_12_289
*1199 FILLER_0_12_301
*1200 FILLER_0_12_307
*1201 FILLER_0_12_309
*1202 FILLER_0_12_321
*1203 FILLER_0_12_333
*1204 FILLER_0_12_345
*1205 FILLER_0_12_357
*1206 FILLER_0_12_363
*1207 FILLER_0_12_365
*1208 FILLER_0_12_377
*1209 FILLER_0_12_389
*1210 FILLER_0_12_401
*1211 FILLER_0_12_41
*1212 FILLER_0_12_413
*1213 FILLER_0_12_419
*1214 FILLER_0_12_421
*1215 FILLER_0_12_433
*1216 FILLER_0_12_445
*1217 FILLER_0_12_457
*1218 FILLER_0_12_469
*1219 FILLER_0_12_475
*1220 FILLER_0_12_477
*1221 FILLER_0_12_489
*1222 FILLER_0_12_501
*1223 FILLER_0_12_514
*1224 FILLER_0_12_520
*1225 FILLER_0_12_53
*1226 FILLER_0_12_533
*1227 FILLER_0_12_545
*1228 FILLER_0_12_557
*1229 FILLER_0_12_569
*1230 FILLER_0_12_581
*1231 FILLER_0_12_587
*1232 FILLER_0_12_589
*1233 FILLER_0_12_593
*1234 FILLER_0_12_601
*1235 FILLER_0_12_613
*1236 FILLER_0_12_65
*1237 FILLER_0_12_77
*1238 FILLER_0_12_83
*1239 FILLER_0_12_85
*1240 FILLER_0_12_97
*1241 FILLER_0_13_105
*1242 FILLER_0_13_111
*1243 FILLER_0_13_113
*1244 FILLER_0_13_125
*1245 FILLER_0_13_137
*1246 FILLER_0_13_14
*1247 FILLER_0_13_149
*1248 FILLER_0_13_161
*1249 FILLER_0_13_167
*1250 FILLER_0_13_169
*1251 FILLER_0_13_181
*1252 FILLER_0_13_193
*1253 FILLER_0_13_205
*1254 FILLER_0_13_217
*1255 FILLER_0_13_223
*1256 FILLER_0_13_225
*1257 FILLER_0_13_237
*1258 FILLER_0_13_249
*1259 FILLER_0_13_26
*1260 FILLER_0_13_265
*1261 FILLER_0_13_277
*1262 FILLER_0_13_281
*1263 FILLER_0_13_293
*1264 FILLER_0_13_305
*1265 FILLER_0_13_317
*1266 FILLER_0_13_329
*1267 FILLER_0_13_335
*1268 FILLER_0_13_337
*1269 FILLER_0_13_349
*1270 FILLER_0_13_357
*1271 FILLER_0_13_365
*1272 FILLER_0_13_377
*1273 FILLER_0_13_38
*1274 FILLER_0_13_389
*1275 FILLER_0_13_393
*1276 FILLER_0_13_405
*1277 FILLER_0_13_417
*1278 FILLER_0_13_429
*1279 FILLER_0_13_441
*1280 FILLER_0_13_447
*1281 FILLER_0_13_449
*1282 FILLER_0_13_461
*1283 FILLER_0_13_473
*1284 FILLER_0_13_485
*1285 FILLER_0_13_497
*1286 FILLER_0_13_50
*1287 FILLER_0_13_503
*1288 FILLER_0_13_505
*1289 FILLER_0_13_517
*1290 FILLER_0_13_529
*1291 FILLER_0_13_541
*1292 FILLER_0_13_553
*1293 FILLER_0_13_559
*1294 FILLER_0_13_561
*1295 FILLER_0_13_57
*1296 FILLER_0_13_573
*1297 FILLER_0_13_585
*1298 FILLER_0_13_597
*1299 FILLER_0_13_609
*1300 FILLER_0_13_615
*1301 FILLER_0_13_617
*1302 FILLER_0_13_69
*1303 FILLER_0_13_81
*1304 FILLER_0_13_89
*1305 FILLER_0_14_101
*1306 FILLER_0_14_113
*1307 FILLER_0_14_125
*1308 FILLER_0_14_137
*1309 FILLER_0_14_141
*1310 FILLER_0_14_15
*1311 FILLER_0_14_153
*1312 FILLER_0_14_165
*1313 FILLER_0_14_177
*1314 FILLER_0_14_197
*1315 FILLER_0_14_209
*1316 FILLER_0_14_221
*1317 FILLER_0_14_233
*1318 FILLER_0_14_245
*1319 FILLER_0_14_251
*1320 FILLER_0_14_253
*1321 FILLER_0_14_265
*1322 FILLER_0_14_27
*1323 FILLER_0_14_277
*1324 FILLER_0_14_289
*1325 FILLER_0_14_29
*1326 FILLER_0_14_3
*1327 FILLER_0_14_309
*1328 FILLER_0_14_321
*1329 FILLER_0_14_333
*1330 FILLER_0_14_345
*1331 FILLER_0_14_357
*1332 FILLER_0_14_363
*1333 FILLER_0_14_385
*1334 FILLER_0_14_397
*1335 FILLER_0_14_405
*1336 FILLER_0_14_41
*1337 FILLER_0_14_421
*1338 FILLER_0_14_433
*1339 FILLER_0_14_445
*1340 FILLER_0_14_457
*1341 FILLER_0_14_469
*1342 FILLER_0_14_475
*1343 FILLER_0_14_477
*1344 FILLER_0_14_489
*1345 FILLER_0_14_501
*1346 FILLER_0_14_513
*1347 FILLER_0_14_525
*1348 FILLER_0_14_53
*1349 FILLER_0_14_531
*1350 FILLER_0_14_533
*1351 FILLER_0_14_545
*1352 FILLER_0_14_557
*1353 FILLER_0_14_569
*1354 FILLER_0_14_581
*1355 FILLER_0_14_587
*1356 FILLER_0_14_589
*1357 FILLER_0_14_601
*1358 FILLER_0_14_613
*1359 FILLER_0_14_65
*1360 FILLER_0_14_77
*1361 FILLER_0_14_83
*1362 FILLER_0_14_97
*1363 FILLER_0_15_105
*1364 FILLER_0_15_111
*1365 FILLER_0_15_113
*1366 FILLER_0_15_125
*1367 FILLER_0_15_13
*1368 FILLER_0_15_137
*1369 FILLER_0_15_149
*1370 FILLER_0_15_161
*1371 FILLER_0_15_167
*1372 FILLER_0_15_169
*1373 FILLER_0_15_177
*1374 FILLER_0_15_200
*1375 FILLER_0_15_212
*1376 FILLER_0_15_225
*1377 FILLER_0_15_259
*1378 FILLER_0_15_271
*1379 FILLER_0_15_279
*1380 FILLER_0_15_281
*1381 FILLER_0_15_293
*1382 FILLER_0_15_3
*1383 FILLER_0_15_305
*1384 FILLER_0_15_317
*1385 FILLER_0_15_325
*1386 FILLER_0_15_34
*1387 FILLER_0_15_357
*1388 FILLER_0_15_369
*1389 FILLER_0_15_381
*1390 FILLER_0_15_389
*1391 FILLER_0_15_393
*1392 FILLER_0_15_405
*1393 FILLER_0_15_424
*1394 FILLER_0_15_436
*1395 FILLER_0_15_46
*1396 FILLER_0_15_462
*1397 FILLER_0_15_474
*1398 FILLER_0_15_488
*1399 FILLER_0_15_497
*1400 FILLER_0_15_503
*1401 FILLER_0_15_505
*1402 FILLER_0_15_517
*1403 FILLER_0_15_529
*1404 FILLER_0_15_54
*1405 FILLER_0_15_541
*1406 FILLER_0_15_553
*1407 FILLER_0_15_559
*1408 FILLER_0_15_561
*1409 FILLER_0_15_57
*1410 FILLER_0_15_573
*1411 FILLER_0_15_585
*1412 FILLER_0_15_597
*1413 FILLER_0_15_609
*1414 FILLER_0_15_615
*1415 FILLER_0_15_617
*1416 FILLER_0_15_69
*1417 FILLER_0_15_81
*1418 FILLER_0_15_93
*1419 FILLER_0_16_105
*1420 FILLER_0_16_109
*1421 FILLER_0_16_121
*1422 FILLER_0_16_133
*1423 FILLER_0_16_139
*1424 FILLER_0_16_141
*1425 FILLER_0_16_15
*1426 FILLER_0_16_153
*1427 FILLER_0_16_165
*1428 FILLER_0_16_177
*1429 FILLER_0_16_189
*1430 FILLER_0_16_195
*1431 FILLER_0_16_197
*1432 FILLER_0_16_209
*1433 FILLER_0_16_213
*1434 FILLER_0_16_216
*1435 FILLER_0_16_225
*1436 FILLER_0_16_237
*1437 FILLER_0_16_249
*1438 FILLER_0_16_253
*1439 FILLER_0_16_265
*1440 FILLER_0_16_27
*1441 FILLER_0_16_277
*1442 FILLER_0_16_289
*1443 FILLER_0_16_29
*1444 FILLER_0_16_3
*1445 FILLER_0_16_301
*1446 FILLER_0_16_307
*1447 FILLER_0_16_309
*1448 FILLER_0_16_321
*1449 FILLER_0_16_333
*1450 FILLER_0_16_345
*1451 FILLER_0_16_357
*1452 FILLER_0_16_363
*1453 FILLER_0_16_365
*1454 FILLER_0_16_377
*1455 FILLER_0_16_389
*1456 FILLER_0_16_408
*1457 FILLER_0_16_41
*1458 FILLER_0_16_421
*1459 FILLER_0_16_433
*1460 FILLER_0_16_445
*1461 FILLER_0_16_457
*1462 FILLER_0_16_469
*1463 FILLER_0_16_475
*1464 FILLER_0_16_477
*1465 FILLER_0_16_489
*1466 FILLER_0_16_501
*1467 FILLER_0_16_513
*1468 FILLER_0_16_521
*1469 FILLER_0_16_53
*1470 FILLER_0_16_531
*1471 FILLER_0_16_533
*1472 FILLER_0_16_545
*1473 FILLER_0_16_557
*1474 FILLER_0_16_569
*1475 FILLER_0_16_581
*1476 FILLER_0_16_587
*1477 FILLER_0_16_589
*1478 FILLER_0_16_601
*1479 FILLER_0_16_613
*1480 FILLER_0_16_65
*1481 FILLER_0_16_77
*1482 FILLER_0_16_83
*1483 FILLER_0_16_85
*1484 FILLER_0_16_91
*1485 FILLER_0_16_94
*1486 FILLER_0_17_102
*1487 FILLER_0_17_110
*1488 FILLER_0_17_113
*1489 FILLER_0_17_125
*1490 FILLER_0_17_137
*1491 FILLER_0_17_15
*1492 FILLER_0_17_157
*1493 FILLER_0_17_165
*1494 FILLER_0_17_169
*1495 FILLER_0_17_181
*1496 FILLER_0_17_190
*1497 FILLER_0_17_202
*1498 FILLER_0_17_214
*1499 FILLER_0_17_222
*1500 FILLER_0_17_237
*1501 FILLER_0_17_249
*1502 FILLER_0_17_261
*1503 FILLER_0_17_27
*1504 FILLER_0_17_276
*1505 FILLER_0_17_281
*1506 FILLER_0_17_293
*1507 FILLER_0_17_3
*1508 FILLER_0_17_305
*1509 FILLER_0_17_317
*1510 FILLER_0_17_329
*1511 FILLER_0_17_335
*1512 FILLER_0_17_337
*1513 FILLER_0_17_349
*1514 FILLER_0_17_355
*1515 FILLER_0_17_363
*1516 FILLER_0_17_375
*1517 FILLER_0_17_387
*1518 FILLER_0_17_39
*1519 FILLER_0_17_391
*1520 FILLER_0_17_393
*1521 FILLER_0_17_405
*1522 FILLER_0_17_417
*1523 FILLER_0_17_429
*1524 FILLER_0_17_441
*1525 FILLER_0_17_447
*1526 FILLER_0_17_449
*1527 FILLER_0_17_461
*1528 FILLER_0_17_473
*1529 FILLER_0_17_485
*1530 FILLER_0_17_497
*1531 FILLER_0_17_503
*1532 FILLER_0_17_505
*1533 FILLER_0_17_51
*1534 FILLER_0_17_517
*1535 FILLER_0_17_529
*1536 FILLER_0_17_541
*1537 FILLER_0_17_55
*1538 FILLER_0_17_553
*1539 FILLER_0_17_559
*1540 FILLER_0_17_561
*1541 FILLER_0_17_567
*1542 FILLER_0_17_57
*1543 FILLER_0_17_579
*1544 FILLER_0_17_591
*1545 FILLER_0_17_603
*1546 FILLER_0_17_615
*1547 FILLER_0_17_617
*1548 FILLER_0_17_69
*1549 FILLER_0_17_81
*1550 FILLER_0_17_85
*1551 FILLER_0_18_109
*1552 FILLER_0_18_121
*1553 FILLER_0_18_133
*1554 FILLER_0_18_139
*1555 FILLER_0_18_141
*1556 FILLER_0_18_145
*1557 FILLER_0_18_168
*1558 FILLER_0_18_180
*1559 FILLER_0_18_192
*1560 FILLER_0_18_197
*1561 FILLER_0_18_209
*1562 FILLER_0_18_21
*1563 FILLER_0_18_221
*1564 FILLER_0_18_233
*1565 FILLER_0_18_245
*1566 FILLER_0_18_251
*1567 FILLER_0_18_253
*1568 FILLER_0_18_261
*1569 FILLER_0_18_27
*1570 FILLER_0_18_279
*1571 FILLER_0_18_29
*1572 FILLER_0_18_291
*1573 FILLER_0_18_303
*1574 FILLER_0_18_307
*1575 FILLER_0_18_309
*1576 FILLER_0_18_321
*1577 FILLER_0_18_333
*1578 FILLER_0_18_345
*1579 FILLER_0_18_357
*1580 FILLER_0_18_363
*1581 FILLER_0_18_365
*1582 FILLER_0_18_371
*1583 FILLER_0_18_377
*1584 FILLER_0_18_389
*1585 FILLER_0_18_401
*1586 FILLER_0_18_41
*1587 FILLER_0_18_413
*1588 FILLER_0_18_419
*1589 FILLER_0_18_421
*1590 FILLER_0_18_433
*1591 FILLER_0_18_445
*1592 FILLER_0_18_457
*1593 FILLER_0_18_469
*1594 FILLER_0_18_475
*1595 FILLER_0_18_477
*1596 FILLER_0_18_489
*1597 FILLER_0_18_501
*1598 FILLER_0_18_513
*1599 FILLER_0_18_525
*1600 FILLER_0_18_53
*1601 FILLER_0_18_531
*1602 FILLER_0_18_533
*1603 FILLER_0_18_545
*1604 FILLER_0_18_557
*1605 FILLER_0_18_569
*1606 FILLER_0_18_581
*1607 FILLER_0_18_587
*1608 FILLER_0_18_589
*1609 FILLER_0_18_601
*1610 FILLER_0_18_613
*1611 FILLER_0_18_621
*1612 FILLER_0_18_65
*1613 FILLER_0_18_82
*1614 FILLER_0_18_85
*1615 FILLER_0_18_9
*1616 FILLER_0_18_97
*1617 FILLER_0_19_105
*1618 FILLER_0_19_111
*1619 FILLER_0_19_113
*1620 FILLER_0_19_121
*1621 FILLER_0_19_130
*1622 FILLER_0_19_142
*1623 FILLER_0_19_15
*1624 FILLER_0_19_154
*1625 FILLER_0_19_166
*1626 FILLER_0_19_169
*1627 FILLER_0_19_181
*1628 FILLER_0_19_193
*1629 FILLER_0_19_205
*1630 FILLER_0_19_217
*1631 FILLER_0_19_223
*1632 FILLER_0_19_238
*1633 FILLER_0_19_242
*1634 FILLER_0_19_249
*1635 FILLER_0_19_261
*1636 FILLER_0_19_27
*1637 FILLER_0_19_273
*1638 FILLER_0_19_281
*1639 FILLER_0_19_293
*1640 FILLER_0_19_3
*1641 FILLER_0_19_305
*1642 FILLER_0_19_317
*1643 FILLER_0_19_329
*1644 FILLER_0_19_335
*1645 FILLER_0_19_337
*1646 FILLER_0_19_349
*1647 FILLER_0_19_361
*1648 FILLER_0_19_373
*1649 FILLER_0_19_385
*1650 FILLER_0_19_39
*1651 FILLER_0_19_391
*1652 FILLER_0_19_409
*1653 FILLER_0_19_421
*1654 FILLER_0_19_433
*1655 FILLER_0_19_445
*1656 FILLER_0_19_449
*1657 FILLER_0_19_461
*1658 FILLER_0_19_473
*1659 FILLER_0_19_485
*1660 FILLER_0_19_497
*1661 FILLER_0_19_503
*1662 FILLER_0_19_505
*1663 FILLER_0_19_51
*1664 FILLER_0_19_517
*1665 FILLER_0_19_529
*1666 FILLER_0_19_541
*1667 FILLER_0_19_55
*1668 FILLER_0_19_553
*1669 FILLER_0_19_559
*1670 FILLER_0_19_561
*1671 FILLER_0_19_57
*1672 FILLER_0_19_573
*1673 FILLER_0_19_585
*1674 FILLER_0_19_593
*1675 FILLER_0_19_604
*1676 FILLER_0_19_610
*1677 FILLER_0_19_614
*1678 FILLER_0_19_617
*1679 FILLER_0_19_69
*1680 FILLER_0_19_81
*1681 FILLER_0_19_93
*1682 FILLER_0_1_104
*1683 FILLER_0_1_113
*1684 FILLER_0_1_125
*1685 FILLER_0_1_137
*1686 FILLER_0_1_149
*1687 FILLER_0_1_15
*1688 FILLER_0_1_163
*1689 FILLER_0_1_167
*1690 FILLER_0_1_169
*1691 FILLER_0_1_173
*1692 FILLER_0_1_179
*1693 FILLER_0_1_183
*1694 FILLER_0_1_195
*1695 FILLER_0_1_207
*1696 FILLER_0_1_219
*1697 FILLER_0_1_223
*1698 FILLER_0_1_225
*1699 FILLER_0_1_237
*1700 FILLER_0_1_249
*1701 FILLER_0_1_261
*1702 FILLER_0_1_27
*1703 FILLER_0_1_273
*1704 FILLER_0_1_279
*1705 FILLER_0_1_281
*1706 FILLER_0_1_293
*1707 FILLER_0_1_3
*1708 FILLER_0_1_305
*1709 FILLER_0_1_317
*1710 FILLER_0_1_329
*1711 FILLER_0_1_335
*1712 FILLER_0_1_337
*1713 FILLER_0_1_349
*1714 FILLER_0_1_361
*1715 FILLER_0_1_373
*1716 FILLER_0_1_385
*1717 FILLER_0_1_39
*1718 FILLER_0_1_391
*1719 FILLER_0_1_409
*1720 FILLER_0_1_421
*1721 FILLER_0_1_433
*1722 FILLER_0_1_445
*1723 FILLER_0_1_449
*1724 FILLER_0_1_461
*1725 FILLER_0_1_473
*1726 FILLER_0_1_485
*1727 FILLER_0_1_497
*1728 FILLER_0_1_503
*1729 FILLER_0_1_505
*1730 FILLER_0_1_51
*1731 FILLER_0_1_517
*1732 FILLER_0_1_529
*1733 FILLER_0_1_541
*1734 FILLER_0_1_55
*1735 FILLER_0_1_553
*1736 FILLER_0_1_559
*1737 FILLER_0_1_561
*1738 FILLER_0_1_57
*1739 FILLER_0_1_573
*1740 FILLER_0_1_585
*1741 FILLER_0_1_597
*1742 FILLER_0_1_609
*1743 FILLER_0_1_615
*1744 FILLER_0_1_617
*1745 FILLER_0_1_69
*1746 FILLER_0_1_81
*1747 FILLER_0_1_92