* NGSPICE file created from register_file.ext - technology: sky130A

* Black-box entry subcircuit for sky130_fd_sc_hd__decap_6 abstract view
.subckt sky130_fd_sc_hd__decap_6 VGND VNB VPB VPWR
.ends

* Black-box entry subcircuit for sky130_ef_sc_hd__decap_12 abstract view
.subckt sky130_ef_sc_hd__decap_12 VPWR VGND VPB VNB
.ends

* Black-box entry subcircuit for sky130_fd_sc_hd__fill_1 abstract view
.subckt sky130_fd_sc_hd__fill_1 VGND VNB VPB VPWR
.ends

* Black-box entry subcircuit for sky130_fd_sc_hd__decap_4 abstract view
.subckt sky130_fd_sc_hd__decap_4 VGND VNB VPB VPWR
.ends

* Black-box entry subcircuit for sky130_fd_sc_hd__fill_2 abstract view
.subckt sky130_fd_sc_hd__fill_2 VGND VNB VPB VPWR
.ends

* Black-box entry subcircuit for sky130_fd_sc_hd__decap_3 abstract view
.subckt sky130_fd_sc_hd__decap_3 VGND VNB VPB VPWR
.ends

* Black-box entry subcircuit for sky130_fd_sc_hd__tapvpwrvgnd_1 abstract view
.subckt sky130_fd_sc_hd__tapvpwrvgnd_1 VGND VPWR
.ends

* Black-box entry subcircuit for sky130_fd_sc_hd__diode_2 abstract view
.subckt sky130_fd_sc_hd__diode_2 DIODE VGND VNB VPB VPWR
.ends

* Black-box entry subcircuit for sky130_fd_sc_hd__decap_8 abstract view
.subckt sky130_fd_sc_hd__decap_8 VGND VNB VPB VPWR
.ends

* Black-box entry subcircuit for sky130_fd_sc_hd__dfxtp_2 abstract view
.subckt sky130_fd_sc_hd__dfxtp_2 CLK D VGND VNB VPB VPWR Q
.ends

* Black-box entry subcircuit for sky130_fd_sc_hd__a22o_2 abstract view
.subckt sky130_fd_sc_hd__a22o_2 A1 A2 B1 B2 VGND VNB VPB VPWR X
.ends

* Black-box entry subcircuit for sky130_fd_sc_hd__nand3b_2 abstract view
.subckt sky130_fd_sc_hd__nand3b_2 A_N B C VGND VNB VPB VPWR Y
.ends

* Black-box entry subcircuit for sky130_fd_sc_hd__mux2_2 abstract view
.subckt sky130_fd_sc_hd__mux2_2 A0 A1 S VGND VNB VPB VPWR X
.ends

* Black-box entry subcircuit for sky130_fd_sc_hd__o22a_2 abstract view
.subckt sky130_fd_sc_hd__o22a_2 A1 A2 B1 B2 VGND VNB VPB VPWR X
.ends

* Black-box entry subcircuit for sky130_fd_sc_hd__clkbuf_8 abstract view
.subckt sky130_fd_sc_hd__clkbuf_8 A VGND VNB VPB VPWR X
.ends

* Black-box entry subcircuit for sky130_fd_sc_hd__buf_1 abstract view
.subckt sky130_fd_sc_hd__buf_1 A VGND VNB VPB VPWR X
.ends

* Black-box entry subcircuit for sky130_fd_sc_hd__or3b_2 abstract view
.subckt sky130_fd_sc_hd__or3b_2 A B C_N VGND VNB VPB VPWR X
.ends

* Black-box entry subcircuit for sky130_fd_sc_hd__o31a_2 abstract view
.subckt sky130_fd_sc_hd__o31a_2 A1 A2 A3 B1 VGND VNB VPB VPWR X
.ends

* Black-box entry subcircuit for sky130_fd_sc_hd__mux4_2 abstract view
.subckt sky130_fd_sc_hd__mux4_2 A0 A1 A2 A3 S0 S1 VGND VNB VPB VPWR X
.ends

* Black-box entry subcircuit for sky130_fd_sc_hd__clkbuf_16 abstract view
.subckt sky130_fd_sc_hd__clkbuf_16 A VGND VNB VPB VPWR X
.ends

* Black-box entry subcircuit for sky130_fd_sc_hd__and4_2 abstract view
.subckt sky130_fd_sc_hd__and4_2 A B C D VGND VNB VPB VPWR X
.ends

* Black-box entry subcircuit for sky130_fd_sc_hd__and2_2 abstract view
.subckt sky130_fd_sc_hd__and2_2 A B VGND VNB VPB VPWR X
.ends

* Black-box entry subcircuit for sky130_fd_sc_hd__a21bo_2 abstract view
.subckt sky130_fd_sc_hd__a21bo_2 A1 A2 B1_N VGND VNB VPB VPWR X
.ends

* Black-box entry subcircuit for sky130_fd_sc_hd__a21oi_2 abstract view
.subckt sky130_fd_sc_hd__a21oi_2 A1 A2 B1 VGND VNB VPB VPWR Y
.ends

* Black-box entry subcircuit for sky130_fd_sc_hd__inv_2 abstract view
.subckt sky130_fd_sc_hd__inv_2 A VGND VNB VPB VPWR Y
.ends

* Black-box entry subcircuit for sky130_fd_sc_hd__nor2b_2 abstract view
.subckt sky130_fd_sc_hd__nor2b_2 A B_N VGND VNB VPB VPWR Y
.ends

* Black-box entry subcircuit for sky130_fd_sc_hd__a31oi_2 abstract view
.subckt sky130_fd_sc_hd__a31oi_2 A1 A2 A3 B1 VGND VNB VPB VPWR Y
.ends

* Black-box entry subcircuit for sky130_fd_sc_hd__and3_2 abstract view
.subckt sky130_fd_sc_hd__and3_2 A B C VGND VNB VPB VPWR X
.ends

* Black-box entry subcircuit for sky130_fd_sc_hd__and4b_2 abstract view
.subckt sky130_fd_sc_hd__and4b_2 A_N B C D VGND VNB VPB VPWR X
.ends

* Black-box entry subcircuit for sky130_fd_sc_hd__and4bb_2 abstract view
.subckt sky130_fd_sc_hd__and4bb_2 A_N B_N C D VGND VNB VPB VPWR X
.ends

* Black-box entry subcircuit for sky130_fd_sc_hd__nor3_2 abstract view
.subckt sky130_fd_sc_hd__nor3_2 A B C VGND VNB VPB VPWR Y
.ends

* Black-box entry subcircuit for sky130_fd_sc_hd__or4b_2 abstract view
.subckt sky130_fd_sc_hd__or4b_2 A B C D_N VGND VNB VPB VPWR X
.ends

* Black-box entry subcircuit for sky130_fd_sc_hd__nor4b_2 abstract view
.subckt sky130_fd_sc_hd__nor4b_2 A B C D_N VGND VNB VPB VPWR Y
.ends

* Black-box entry subcircuit for sky130_fd_sc_hd__and2b_2 abstract view
.subckt sky130_fd_sc_hd__and2b_2 A_N B VGND VNB VPB VPWR X
.ends

.subckt register_file VGND VPWR address[0] address[10] address[11] address[12] address[13]
+ address[14] address[15] address[1] address[2] address[3] address[4] address[5] address[6]
+ address[7] address[8] address[9] clk data_in[0] data_in[10] data_in[11] data_in[12]
+ data_in[13] data_in[14] data_in[15] data_in[1] data_in[2] data_in[3] data_in[4]
+ data_in[5] data_in[6] data_in[7] data_in[8] data_in[9] data_out[0] data_out[10]
+ data_out[11] data_out[12] data_out[13] data_out[14] data_out[15] data_out[1] data_out[2]
+ data_out[3] data_out[4] data_out[5] data_out[6] data_out[7] data_out[8] data_out[9]
+ rst we
XFILLER_0_94_77 VGND VGND VPWR VPWR sky130_fd_sc_hd__decap_6
XFILLER_0_118_51 VPWR VGND VPWR VGND sky130_ef_sc_hd__decap_12
XFILLER_0_89_461 VPWR VGND VPWR VGND sky130_ef_sc_hd__decap_12
XFILLER_0_167_809 VPWR VGND VPWR VGND sky130_ef_sc_hd__decap_12
XFILLER_0_134_83 VGND VGND VPWR VPWR sky130_fd_sc_hd__fill_1
XFILLER_0_18_701 VPWR VGND VPWR VGND sky130_ef_sc_hd__decap_12
XFILLER_0_43_81 VPWR VGND VPWR VGND sky130_ef_sc_hd__decap_12
XFILLER_0_159_393 VPWR VGND VPWR VGND sky130_ef_sc_hd__decap_12
XFILLER_0_9_444 VGND VGND VPWR VPWR sky130_fd_sc_hd__decap_4
XFILLER_0_58_881 VPWR VGND VPWR VGND sky130_ef_sc_hd__decap_12
XFILLER_0_76_177 VPWR VGND VPWR VGND sky130_ef_sc_hd__decap_12
XFILLER_0_92_637 VGND VGND VPWR VPWR sky130_fd_sc_hd__decap_6
XFILLER_0_119_257 VGND VGND VPWR VPWR sky130_fd_sc_hd__fill_2
XFILLER_0_91_125 VPWR VGND VPWR VGND sky130_ef_sc_hd__decap_12
XFILLER_0_162_525 VGND VGND VPWR VPWR sky130_fd_sc_hd__decap_6
XFILLER_0_91_169 VPWR VGND VPWR VGND sky130_ef_sc_hd__decap_12
XFILLER_0_60_501 VPWR VGND VPWR VGND sky130_ef_sc_hd__decap_12
XFILLER_0_72_361 VGND VGND VPWR VPWR sky130_fd_sc_hd__decap_3
XFILLER_0_73_895 VGND VGND VPWR VPWR sky130_fd_sc_hd__fill_1
XFILLER_0_115_441 VGND VGND VPWR VPWR sky130_fd_sc_hd__decap_6
XFILLER_0_45_597 VPWR VGND VPWR VGND sky130_ef_sc_hd__decap_12
XFILLER_0_143_761 VGND VGND VPWR VPWR sky130_fd_sc_hd__fill_1
XFILLER_0_33_759 VPWR VGND VPWR VGND sky130_ef_sc_hd__decap_12
XFILLER_0_60_545 VPWR VGND VPWR VGND sky130_ef_sc_hd__decap_12
XFILLER_0_14_951 VPWR VGND VPWR VGND sky130_ef_sc_hd__decap_12
XFILLER_0_115_485 VPWR VGND VPWR VGND sky130_ef_sc_hd__decap_12
XFILLER_0_131_945 VGND VGND VPWR VPWR sky130_fd_sc_hd__decap_6
XFILLER_0_60_589 VPWR VGND VPWR VGND sky130_ef_sc_hd__decap_12
XFILLER_0_130_433 VPWR VGND VPWR VGND sky130_ef_sc_hd__decap_12
XFILLER_0_13_461 VPWR VGND VPWR VGND sky130_ef_sc_hd__decap_12
XFILLER_0_131_978 VPWR VGND VPWR VGND sky130_ef_sc_hd__decap_12
XFILLER_0_7_81 VPWR VGND VPWR VGND sky130_ef_sc_hd__decap_12
XFILLER_0_130_477 VPWR VGND VPWR VGND sky130_ef_sc_hd__decap_12
XFILLER_0_99_1033 VPWR VGND VPWR VGND sky130_ef_sc_hd__decap_12
XFILLER_0_99_225 VPWR VGND VPWR VGND sky130_ef_sc_hd__decap_12
XTAP_3202 VGND VPWR sky130_fd_sc_hd__tapvpwrvgnd_1
XTAP_3213 VGND VPWR sky130_fd_sc_hd__tapvpwrvgnd_1
XTAP_3224 VGND VPWR sky130_fd_sc_hd__tapvpwrvgnd_1
XTAP_3235 VGND VPWR sky130_fd_sc_hd__tapvpwrvgnd_1
XTAP_2501 VGND VPWR sky130_fd_sc_hd__tapvpwrvgnd_1
XFILLER_0_169_113 VPWR VGND VPWR VGND sky130_ef_sc_hd__decap_12
XTAP_3246 VGND VPWR sky130_fd_sc_hd__tapvpwrvgnd_1
XFILLER_0_68_601 VPWR VGND VPWR VGND sky130_ef_sc_hd__decap_12
XTAP_2512 VGND VPWR sky130_fd_sc_hd__tapvpwrvgnd_1
XANTENNA_202 _0150_ VGND VGND VPWR VPWR sky130_fd_sc_hd__diode_2
XTAP_3257 VGND VPWR sky130_fd_sc_hd__tapvpwrvgnd_1
XANTENNA_213 _0151_ VGND VGND VPWR VPWR sky130_fd_sc_hd__diode_2
XTAP_2523 VGND VPWR sky130_fd_sc_hd__tapvpwrvgnd_1
XTAP_3268 VGND VPWR sky130_fd_sc_hd__tapvpwrvgnd_1
XTAP_2534 VGND VPWR sky130_fd_sc_hd__tapvpwrvgnd_1
XTAP_3279 VGND VPWR sky130_fd_sc_hd__tapvpwrvgnd_1
XANTENNA_224 _0177_ VGND VGND VPWR VPWR sky130_fd_sc_hd__diode_2
XTAP_1800 VGND VPWR sky130_fd_sc_hd__tapvpwrvgnd_1
XTAP_2545 VGND VPWR sky130_fd_sc_hd__tapvpwrvgnd_1
XTAP_1811 VGND VPWR sky130_fd_sc_hd__tapvpwrvgnd_1
XTAP_2556 VGND VPWR sky130_fd_sc_hd__tapvpwrvgnd_1
XANTENNA_235 _0191_ VGND VGND VPWR VPWR sky130_fd_sc_hd__diode_2
XFILLER_0_68_645 VPWR VGND VPWR VGND sky130_ef_sc_hd__decap_12
XTAP_1822 VGND VPWR sky130_fd_sc_hd__tapvpwrvgnd_1
XANTENNA_246 _0192_ VGND VGND VPWR VPWR sky130_fd_sc_hd__diode_2
XANTENNA_257 _0193_ VGND VGND VPWR VPWR sky130_fd_sc_hd__diode_2
XTAP_2567 VGND VPWR sky130_fd_sc_hd__tapvpwrvgnd_1
XTAP_1833 VGND VPWR sky130_fd_sc_hd__tapvpwrvgnd_1
XTAP_2578 VGND VPWR sky130_fd_sc_hd__tapvpwrvgnd_1
XANTENNA_268 _0193_ VGND VGND VPWR VPWR sky130_fd_sc_hd__diode_2
XTAP_1844 VGND VPWR sky130_fd_sc_hd__tapvpwrvgnd_1
XTAP_2589 VGND VPWR sky130_fd_sc_hd__tapvpwrvgnd_1
XANTENNA_279 _0231_ VGND VGND VPWR VPWR sky130_fd_sc_hd__diode_2
XTAP_1855 VGND VPWR sky130_fd_sc_hd__tapvpwrvgnd_1
XTAP_1866 VGND VPWR sky130_fd_sc_hd__tapvpwrvgnd_1
XFILLER_0_83_615 VGND VGND VPWR VPWR sky130_fd_sc_hd__fill_1
XFILLER_0_138_533 VGND VGND VPWR VPWR sky130_fd_sc_hd__decap_8
XFILLER_0_55_317 VPWR VGND VPWR VGND sky130_ef_sc_hd__decap_12
XTAP_1877 VGND VPWR sky130_fd_sc_hd__tapvpwrvgnd_1
XTAP_1888 VGND VPWR sky130_fd_sc_hd__tapvpwrvgnd_1
XFILLER_0_95_497 VGND VGND VPWR VPWR sky130_fd_sc_hd__decap_6
XTAP_1899 VGND VPWR sky130_fd_sc_hd__tapvpwrvgnd_1
XFILLER_0_138_577 VGND VGND VPWR VPWR sky130_fd_sc_hd__decap_8
XFILLER_0_153_503 VGND VGND VPWR VPWR sky130_fd_sc_hd__fill_1
XFILLER_0_36_531 VGND VGND VPWR VPWR sky130_fd_sc_hd__fill_1
XFILLER_0_125_205 VPWR VGND VPWR VGND sky130_ef_sc_hd__decap_12
XFILLER_0_165_385 VGND VGND VPWR VPWR sky130_fd_sc_hd__decap_6
XFILLER_0_70_309 VPWR VGND VPWR VGND sky130_ef_sc_hd__decap_12
XFILLER_0_63_361 VPWR VGND VPWR VGND sky130_ef_sc_hd__decap_12
XFILLER_0_107_953 VPWR VGND VPWR VGND sky130_ef_sc_hd__decap_12
XFILLER_0_125_249 VPWR VGND VPWR VGND sky130_ef_sc_hd__decap_12
XFILLER_0_141_709 VGND VGND VPWR VPWR sky130_fd_sc_hd__fill_2
XFILLER_0_24_737 VPWR VGND VPWR VGND sky130_ef_sc_hd__decap_12
XFILLER_0_3_609 VGND VGND VPWR VPWR sky130_fd_sc_hd__decap_6
XFILLER_0_23_225 VPWR VGND VPWR VGND sky130_ef_sc_hd__decap_12
XFILLER_0_122_923 VGND VGND VPWR VPWR sky130_fd_sc_hd__fill_1
XFILLER_0_161_591 VGND VGND VPWR VPWR sky130_fd_sc_hd__fill_1
XFILLER_0_107_1033 VGND VGND VPWR VPWR sky130_fd_sc_hd__fill_2
XFILLER_0_32_781 VPWR VGND VPWR VGND sky130_ef_sc_hd__decap_12
XFILLER_0_43_1021 VPWR VGND VPWR VGND sky130_ef_sc_hd__decap_12
XFILLER_0_48_15 VPWR VGND VPWR VGND sky130_ef_sc_hd__decap_12
XFILLER_0_139_39 VPWR VGND VPWR VGND sky130_ef_sc_hd__decap_12
X_1270_ clknet_leaf_63_clk _0130_ VGND VGND VPWR VPWR regs\[14\]\[2\] sky130_fd_sc_hd__dfxtp_2
XFILLER_0_155_27 VPWR VGND VPWR VGND sky130_ef_sc_hd__decap_12
XFILLER_0_3_39 VPWR VGND VPWR VGND sky130_ef_sc_hd__decap_12
XFILLER_0_87_921 VPWR VGND VPWR VGND sky130_ef_sc_hd__decap_12
XFILLER_0_171_15 VPWR VGND VPWR VGND sky130_ef_sc_hd__decap_12
XFILLER_0_58_133 VGND VGND VPWR VPWR sky130_fd_sc_hd__decap_6
XFILLER_0_87_965 VPWR VGND VPWR VGND sky130_ef_sc_hd__decap_12
XFILLER_0_114_1037 VPWR VGND VPWR VGND sky130_ef_sc_hd__decap_12
XFILLER_0_147_3 VPWR VGND VPWR VGND sky130_ef_sc_hd__decap_12
XFILLER_0_50_1014 VPWR VGND VPWR VGND sky130_ef_sc_hd__decap_12
XFILLER_0_157_853 VPWR VGND VPWR VGND sky130_ef_sc_hd__decap_12
XFILLER_0_58_177 VPWR VGND VPWR VGND sky130_ef_sc_hd__decap_12
XFILLER_0_74_637 VGND VGND VPWR VPWR sky130_fd_sc_hd__decap_6
XFILLER_0_11_1009 VGND VGND VPWR VPWR sky130_fd_sc_hd__decap_8
XFILLER_0_73_125 VPWR VGND VPWR VGND sky130_ef_sc_hd__decap_12
XFILLER_0_104_53 VPWR VGND VPWR VGND sky130_ef_sc_hd__decap_12
XFILLER_0_129_566 VPWR VGND VPWR VGND sky130_ef_sc_hd__decap_12
XFILLER_0_13_51 VGND VGND VPWR VPWR sky130_fd_sc_hd__decap_4
XFILLER_0_156_363 VGND VGND VPWR VPWR sky130_fd_sc_hd__fill_1
XFILLER_0_39_391 VGND VGND VPWR VPWR sky130_fd_sc_hd__fill_1
XFILLER_0_157_897 VGND VGND VPWR VPWR sky130_fd_sc_hd__decap_8
XFILLER_0_27_553 VGND VGND VPWR VPWR sky130_fd_sc_hd__decap_6
XFILLER_0_144_525 VGND VGND VPWR VPWR sky130_fd_sc_hd__decap_6
XFILLER_0_156_385 VGND VGND VPWR VPWR sky130_fd_sc_hd__fill_1
XFILLER_0_73_169 VPWR VGND VPWR VGND sky130_ef_sc_hd__decap_12
XFILLER_0_104_97 VPWR VGND VPWR VGND sky130_ef_sc_hd__decap_12
XFILLER_0_42_501 VPWR VGND VPWR VGND sky130_ef_sc_hd__decap_12
X_0985_ _0502_ _0553_ _0555_ regs\[14\]\[10\] VGND VGND VPWR VPWR _0138_ sky130_fd_sc_hd__a22o_2
XFILLER_0_55_895 VGND VGND VPWR VPWR sky130_fd_sc_hd__fill_1
XFILLER_0_82_681 VPWR VGND VPWR VGND sky130_ef_sc_hd__decap_12
XFILLER_0_144_569 VPWR VGND VPWR VGND sky130_ef_sc_hd__decap_12
XFILLER_0_27_597 VPWR VGND VPWR VGND sky130_ef_sc_hd__decap_12
XFILLER_0_6_469 VGND VGND VPWR VPWR sky130_fd_sc_hd__decap_6
XFILLER_0_89_55 VGND VGND VPWR VPWR sky130_fd_sc_hd__fill_1
XFILLER_0_120_41 VPWR VGND VPWR VGND sky130_ef_sc_hd__decap_12
XFILLER_0_125_783 VGND VGND VPWR VPWR sky130_fd_sc_hd__fill_1
XFILLER_0_112_433 VGND VGND VPWR VPWR sky130_fd_sc_hd__fill_2
XFILLER_0_42_589 VPWR VGND VPWR VGND sky130_ef_sc_hd__decap_12
XFILLER_0_11_921 VPWR VGND VPWR VGND sky130_ef_sc_hd__decap_12
XFILLER_0_120_85 VPWR VGND VPWR VGND sky130_ef_sc_hd__decap_12
XFILLER_0_140_753 VGND VGND VPWR VPWR sky130_fd_sc_hd__decap_3
XFILLER_0_112_455 VPWR VGND VPWR VGND sky130_ef_sc_hd__decap_12
XFILLER_0_113_989 VPWR VGND VPWR VGND sky130_ef_sc_hd__decap_12
XFILLER_0_112_477 VPWR VGND VPWR VGND sky130_ef_sc_hd__decap_12
XFILLER_0_11_965 VPWR VGND VPWR VGND sky130_ef_sc_hd__decap_12
XFILLER_0_10_475 VGND VGND VPWR VPWR sky130_fd_sc_hd__fill_1
XFILLER_0_78_943 VGND VGND VPWR VPWR sky130_fd_sc_hd__fill_2
XTAP_1107 VGND VPWR sky130_fd_sc_hd__tapvpwrvgnd_1
XFILLER_0_49_111 VGND VGND VPWR VPWR sky130_fd_sc_hd__fill_1
XFILLER_0_145_93 VPWR VGND VPWR VGND sky130_ef_sc_hd__decap_12
XFILLER_0_167_617 VPWR VGND VPWR VGND sky130_ef_sc_hd__decap_12
XTAP_1118 VGND VPWR sky130_fd_sc_hd__tapvpwrvgnd_1
XTAP_1129 VGND VPWR sky130_fd_sc_hd__tapvpwrvgnd_1
XFILLER_0_65_615 VGND VGND VPWR VPWR sky130_fd_sc_hd__fill_1
XFILLER_0_92_401 VPWR VGND VPWR VGND sky130_ef_sc_hd__decap_12
XFILLER_0_64_114 VPWR VGND VPWR VGND sky130_ef_sc_hd__decap_12
XFILLER_0_18_531 VGND VGND VPWR VPWR sky130_fd_sc_hd__fill_1
XFILLER_0_92_445 VPWR VGND VPWR VGND sky130_ef_sc_hd__decap_12
XFILLER_0_107_205 VPWR VGND VPWR VGND sky130_ef_sc_hd__decap_12
XFILLER_0_161_81 VPWR VGND VPWR VGND sky130_ef_sc_hd__decap_12
XFILLER_0_147_385 VGND VGND VPWR VPWR sky130_fd_sc_hd__decap_6
XFILLER_0_52_309 VPWR VGND VPWR VGND sky130_ef_sc_hd__decap_12
XFILLER_0_174_193 VGND VGND VPWR VPWR sky130_fd_sc_hd__decap_3
XFILLER_0_45_361 VPWR VGND VPWR VGND sky130_ef_sc_hd__decap_12
XFILLER_0_92_489 VPWR VGND VPWR VGND sky130_ef_sc_hd__decap_12
XFILLER_0_107_249 VPWR VGND VPWR VGND sky130_ef_sc_hd__decap_12
XFILLER_0_162_333 VPWR VGND VPWR VGND sky130_ef_sc_hd__decap_12
XFILLER_0_18_586 VGND VGND VPWR VPWR sky130_fd_sc_hd__fill_2
XFILLER_0_61_821 VPWR VGND VPWR VGND sky130_ef_sc_hd__decap_12
XFILLER_0_123_709 VPWR VGND VPWR VGND sky130_ef_sc_hd__decap_12
XFILLER_0_163_889 VGND VGND VPWR VPWR sky130_fd_sc_hd__decap_6
XFILLER_0_162_377 VPWR VGND VPWR VGND sky130_ef_sc_hd__decap_12
XFILLER_0_6_981 VPWR VGND VPWR VGND sky130_ef_sc_hd__decap_12
XFILLER_0_61_865 VPWR VGND VPWR VGND sky130_ef_sc_hd__decap_12
XFILLER_0_104_923 VGND VGND VPWR VPWR sky130_fd_sc_hd__fill_1
XFILLER_0_21_729 VGND VGND VPWR VPWR sky130_fd_sc_hd__fill_2
XFILLER_0_115_293 VPWR VGND VPWR VGND sky130_ef_sc_hd__decap_12
XFILLER_0_14_781 VPWR VGND VPWR VGND sky130_ef_sc_hd__decap_12
XFILLER_0_104_978 VGND VGND VPWR VPWR sky130_fd_sc_hd__fill_2
XFILLER_0_131_797 VPWR VGND VPWR VGND sky130_ef_sc_hd__decap_12
XFILLER_0_18_29 VPWR VGND VPWR VGND sky130_ef_sc_hd__decap_12
XTAP_3010 VGND VPWR sky130_fd_sc_hd__tapvpwrvgnd_1
XTAP_3021 VGND VPWR sky130_fd_sc_hd__tapvpwrvgnd_1
XTAP_3032 VGND VPWR sky130_fd_sc_hd__tapvpwrvgnd_1
XTAP_3043 VGND VPWR sky130_fd_sc_hd__tapvpwrvgnd_1
XFILLER_0_69_921 VPWR VGND VPWR VGND sky130_ef_sc_hd__decap_12
XFILLER_0_87_217 VGND VGND VPWR VPWR sky130_fd_sc_hd__decap_6
XTAP_3054 VGND VPWR sky130_fd_sc_hd__tapvpwrvgnd_1
XTAP_2320 VGND VPWR sky130_fd_sc_hd__tapvpwrvgnd_1
XTAP_3065 VGND VPWR sky130_fd_sc_hd__tapvpwrvgnd_1
XFILLER_0_73_1058 VGND VGND VPWR VPWR sky130_fd_sc_hd__fill_1
XTAP_2331 VGND VPWR sky130_fd_sc_hd__tapvpwrvgnd_1
XTAP_3076 VGND VPWR sky130_fd_sc_hd__tapvpwrvgnd_1
XTAP_2342 VGND VPWR sky130_fd_sc_hd__tapvpwrvgnd_1
XTAP_3087 VGND VPWR sky130_fd_sc_hd__tapvpwrvgnd_1
XFILLER_0_69_965 VPWR VGND VPWR VGND sky130_ef_sc_hd__decap_12
XTAP_2353 VGND VPWR sky130_fd_sc_hd__tapvpwrvgnd_1
XTAP_3098 VGND VPWR sky130_fd_sc_hd__tapvpwrvgnd_1
XFILLER_0_157_105 VGND VGND VPWR VPWR sky130_fd_sc_hd__decap_6
XTAP_2364 VGND VPWR sky130_fd_sc_hd__tapvpwrvgnd_1
XTAP_1630 VGND VPWR sky130_fd_sc_hd__tapvpwrvgnd_1
XTAP_2375 VGND VPWR sky130_fd_sc_hd__tapvpwrvgnd_1
XTAP_1641 VGND VPWR sky130_fd_sc_hd__tapvpwrvgnd_1
XFILLER_0_68_475 VGND VGND VPWR VPWR sky130_fd_sc_hd__fill_1
XTAP_2386 VGND VPWR sky130_fd_sc_hd__tapvpwrvgnd_1
XTAP_1652 VGND VPWR sky130_fd_sc_hd__tapvpwrvgnd_1
XFILLER_0_95_261 VPWR VGND VPWR VGND sky130_ef_sc_hd__decap_12
XTAP_2397 VGND VPWR sky130_fd_sc_hd__tapvpwrvgnd_1
XFILLER_0_139_853 VPWR VGND VPWR VGND sky130_ef_sc_hd__decap_12
XFILLER_0_157_149 VPWR VGND VPWR VGND sky130_ef_sc_hd__decap_12
XFILLER_0_173_609 VGND VGND VPWR VPWR sky130_fd_sc_hd__decap_6
XFILLER_0_56_637 VGND VGND VPWR VPWR sky130_fd_sc_hd__decap_6
XTAP_1663 VGND VPWR sky130_fd_sc_hd__tapvpwrvgnd_1
XTAP_1674 VGND VPWR sky130_fd_sc_hd__tapvpwrvgnd_1
XFILLER_0_55_125 VPWR VGND VPWR VGND sky130_ef_sc_hd__decap_12
XTAP_1685 VGND VPWR sky130_fd_sc_hd__tapvpwrvgnd_1
XTAP_1696 VGND VPWR sky130_fd_sc_hd__tapvpwrvgnd_1
XFILLER_0_138_363 VGND VGND VPWR VPWR sky130_fd_sc_hd__fill_1
XFILLER_0_141_29 VGND VGND VPWR VPWR sky130_fd_sc_hd__fill_1
XFILLER_0_50_27 VGND VGND VPWR VPWR sky130_fd_sc_hd__fill_1
XFILLER_0_84_979 VGND VGND VPWR VPWR sky130_fd_sc_hd__fill_1
XFILLER_0_139_897 VGND VGND VPWR VPWR sky130_fd_sc_hd__decap_4
XFILLER_0_126_525 VGND VGND VPWR VPWR sky130_fd_sc_hd__decap_6
XFILLER_0_37_873 VPWR VGND VPWR VGND sky130_ef_sc_hd__decap_12
XFILLER_0_55_169 VPWR VGND VPWR VGND sky130_ef_sc_hd__decap_12
XFILLER_0_71_629 VPWR VGND VPWR VGND sky130_ef_sc_hd__decap_12
XFILLER_0_165_193 VPWR VGND VPWR VGND sky130_ef_sc_hd__decap_12
XFILLER_0_52_810 VGND VGND VPWR VPWR sky130_fd_sc_hd__fill_2
XFILLER_0_154_867 VGND VGND VPWR VPWR sky130_fd_sc_hd__fill_1
XFILLER_0_52_821 VPWR VGND VPWR VGND sky130_ef_sc_hd__decap_12
XFILLER_0_64_681 VPWR VGND VPWR VGND sky130_ef_sc_hd__decap_12
XFILLER_0_126_569 VPWR VGND VPWR VGND sky130_ef_sc_hd__decap_12
XFILLER_0_70_139 VGND VGND VPWR VPWR sky130_fd_sc_hd__fill_1
X_0770_ regs\[15\]\[15\] _0310_ _0305_ VGND VGND VPWR VPWR _0481_ sky130_fd_sc_hd__nand3b_2
XFILLER_0_24_545 VPWR VGND VPWR VGND sky130_ef_sc_hd__decap_12
XFILLER_0_3_417 VGND VGND VPWR VPWR sky130_fd_sc_hd__decap_3
XFILLER_0_141_517 VPWR VGND VPWR VGND sky130_ef_sc_hd__decap_12
XFILLER_0_107_783 VGND VGND VPWR VPWR sky130_fd_sc_hd__fill_1
XFILLER_0_3_428 VGND VGND VPWR VPWR sky130_fd_sc_hd__decap_8
XFILLER_0_52_865 VGND VGND VPWR VPWR sky130_fd_sc_hd__decap_3
XFILLER_0_24_589 VPWR VGND VPWR VGND sky130_ef_sc_hd__decap_12
XFILLER_0_11_206 VGND VGND VPWR VPWR sky130_fd_sc_hd__fill_2
XFILLER_0_80_1029 VGND VGND VPWR VPWR sky130_fd_sc_hd__decap_6
XFILLER_0_59_69 VPWR VGND VPWR VGND sky130_ef_sc_hd__decap_12
XFILLER_0_110_937 VPWR VGND VPWR VGND sky130_ef_sc_hd__decap_12
XFILLER_0_166_15 VPWR VGND VPWR VGND sky130_ef_sc_hd__decap_12
X_1322_ clknet_leaf_74_clk _0182_ VGND VGND VPWR VPWR regs\[12\]\[6\] sky130_fd_sc_hd__dfxtp_2
XFILLER_0_75_57 VPWR VGND VPWR VGND sky130_ef_sc_hd__decap_12
X_1253_ clknet_leaf_90_clk _0113_ VGND VGND VPWR VPWR regs\[13\]\[1\] sky130_fd_sc_hd__dfxtp_2
X_1184_ clknet_leaf_68_clk _0044_ VGND VGND VPWR VPWR regs\[5\]\[12\] sky130_fd_sc_hd__dfxtp_2
XFILLER_0_79_729 VPWR VGND VPWR VGND sky130_ef_sc_hd__decap_12
XFILLER_0_149_617 VPWR VGND VPWR VGND sky130_ef_sc_hd__decap_12
XFILLER_0_47_615 VGND VGND VPWR VPWR sky130_fd_sc_hd__fill_1
XFILLER_0_74_401 VPWR VGND VPWR VGND sky130_ef_sc_hd__decap_12
XFILLER_0_86_261 VGND VGND VPWR VPWR sky130_fd_sc_hd__fill_2
XFILLER_0_19_317 VPWR VGND VPWR VGND sky130_ef_sc_hd__decap_12
XFILLER_0_24_83 VGND VGND VPWR VPWR sky130_fd_sc_hd__fill_1
XFILLER_0_89_1021 VPWR VGND VPWR VGND sky130_ef_sc_hd__decap_12
XFILLER_0_117_503 VGND VGND VPWR VPWR sky130_fd_sc_hd__fill_1
XFILLER_0_74_445 VPWR VGND VPWR VGND sky130_ef_sc_hd__decap_12
XFILLER_0_90_905 VPWR VGND VPWR VGND sky130_ef_sc_hd__decap_12
XFILLER_0_129_385 VGND VGND VPWR VPWR sky130_fd_sc_hd__decap_6
XFILLER_0_34_309 VPWR VGND VPWR VGND sky130_ef_sc_hd__decap_12
XFILLER_0_74_489 VGND VGND VPWR VPWR sky130_fd_sc_hd__decap_4
XFILLER_0_144_333 VPWR VGND VPWR VGND sky130_ef_sc_hd__decap_12
XFILLER_0_172_642 VGND VGND VPWR VPWR sky130_fd_sc_hd__fill_2
XFILLER_0_6_233 VPWR VGND VPWR VGND sky130_ef_sc_hd__decap_12
XFILLER_0_43_810 VGND VGND VPWR VPWR sky130_fd_sc_hd__fill_2
XFILLER_0_105_709 VPWR VGND VPWR VGND sky130_ef_sc_hd__decap_12
XFILLER_0_131_51 VGND VGND VPWR VPWR sky130_fd_sc_hd__decap_4
XFILLER_0_172_664 VPWR VGND VPWR VGND sky130_ef_sc_hd__decap_12
XFILLER_0_145_889 VGND VGND VPWR VPWR sky130_fd_sc_hd__decap_6
XFILLER_0_144_377 VPWR VGND VPWR VGND sky130_ef_sc_hd__decap_12
X_0968_ _0507_ _0547_ _0549_ regs\[13\]\[15\] VGND VGND VPWR VPWR _0127_ sky130_fd_sc_hd__a22o_2
XFILLER_0_6_277 VGND VGND VPWR VPWR sky130_fd_sc_hd__fill_1
XFILLER_0_160_837 VPWR VGND VPWR VGND sky130_ef_sc_hd__decap_12
XFILLER_0_43_865 VPWR VGND VPWR VGND sky130_ef_sc_hd__decap_12
XFILLER_0_3_951 VGND VGND VPWR VPWR sky130_fd_sc_hd__fill_1
X_0899_ _0504_ _0529_ _0531_ regs\[4\]\[12\] VGND VGND VPWR VPWR _0076_ sky130_fd_sc_hd__a22o_2
XFILLER_0_71_3 VPWR VGND VPWR VGND sky130_ef_sc_hd__decap_12
XFILLER_0_113_753 VPWR VGND VPWR VGND sky130_ef_sc_hd__decap_12
XFILLER_0_113_797 VPWR VGND VPWR VGND sky130_ef_sc_hd__decap_12
XFILLER_0_100_469 VGND VGND VPWR VPWR sky130_fd_sc_hd__decap_6
XFILLER_0_57_1009 VPWR VGND VPWR VGND sky130_ef_sc_hd__decap_12
XFILLER_0_69_217 VGND VGND VPWR VPWR sky130_fd_sc_hd__decap_6
XFILLER_0_97_559 VGND VGND VPWR VPWR sky130_fd_sc_hd__fill_1
XFILLER_0_168_937 VPWR VGND VPWR VGND sky130_ef_sc_hd__decap_12
XFILLER_0_84_209 VPWR VGND VPWR VGND sky130_ef_sc_hd__decap_12
XFILLER_0_167_447 VGND VGND VPWR VPWR sky130_fd_sc_hd__fill_1
XFILLER_0_33_1020 VGND VGND VPWR VPWR sky130_fd_sc_hd__fill_2
XFILLER_0_77_261 VPWR VGND VPWR VGND sky130_ef_sc_hd__decap_12
XFILLER_0_139_149 VPWR VGND VPWR VGND sky130_ef_sc_hd__decap_12
XFILLER_0_93_721 VGND VGND VPWR VPWR sky130_fd_sc_hd__decap_6
XFILLER_0_155_609 VGND VGND VPWR VPWR sky130_fd_sc_hd__decap_6
XFILLER_0_38_637 VGND VGND VPWR VPWR sky130_fd_sc_hd__decap_6
XFILLER_0_37_125 VPWR VGND VPWR VGND sky130_ef_sc_hd__decap_12
XFILLER_0_66_979 VGND VGND VPWR VPWR sky130_fd_sc_hd__fill_1
XFILLER_0_93_765 VPWR VGND VPWR VGND sky130_ef_sc_hd__decap_12
XFILLER_0_92_253 VPWR VGND VPWR VGND sky130_ef_sc_hd__decap_12
XFILLER_0_37_169 VPWR VGND VPWR VGND sky130_ef_sc_hd__decap_12
XFILLER_0_53_629 VPWR VGND VPWR VGND sky130_ef_sc_hd__decap_12
XFILLER_0_135_333 VGND VGND VPWR VPWR sky130_fd_sc_hd__decap_3
XFILLER_0_147_193 VPWR VGND VPWR VGND sky130_ef_sc_hd__decap_12
XFILLER_0_19_895 VGND VGND VPWR VPWR sky130_fd_sc_hd__fill_1
XFILLER_0_46_681 VPWR VGND VPWR VGND sky130_ef_sc_hd__decap_12
XFILLER_0_108_569 VPWR VGND VPWR VGND sky130_ef_sc_hd__decap_12
XFILLER_0_162_141 VPWR VGND VPWR VGND sky130_ef_sc_hd__decap_12
XFILLER_0_52_139 VGND VGND VPWR VPWR sky130_fd_sc_hd__fill_1
XFILLER_0_123_517 VPWR VGND VPWR VGND sky130_ef_sc_hd__decap_12
XFILLER_0_34_865 VGND VGND VPWR VPWR sky130_fd_sc_hd__decap_3
XFILLER_0_163_697 VGND VGND VPWR VPWR sky130_fd_sc_hd__decap_8
XFILLER_0_61_673 VPWR VGND VPWR VGND sky130_ef_sc_hd__decap_12
XFILLER_0_131_561 VPWR VGND VPWR VGND sky130_ef_sc_hd__decap_12
XFILLER_0_21_559 VGND VGND VPWR VPWR sky130_fd_sc_hd__fill_1
XFILLER_0_104_1025 VGND VGND VPWR VPWR sky130_fd_sc_hd__decap_8
XFILLER_0_29_39 VPWR VGND VPWR VGND sky130_ef_sc_hd__decap_12
XFILLER_0_100_981 VPWR VGND VPWR VGND sky130_ef_sc_hd__decap_12
XFILLER_0_40_1057 VGND VGND VPWR VPWR sky130_fd_sc_hd__fill_2
XFILLER_0_136_29 VPWR VGND VPWR VGND sky130_ef_sc_hd__decap_12
XFILLER_0_45_27 VPWR VGND VPWR VGND sky130_ef_sc_hd__decap_12
XFILLER_0_0_29 VPWR VGND VPWR VGND sky130_ef_sc_hd__decap_12
XTAP_2150 VGND VPWR sky130_fd_sc_hd__tapvpwrvgnd_1
XFILLER_0_61_15 VPWR VGND VPWR VGND sky130_ef_sc_hd__decap_12
XTAP_2161 VGND VPWR sky130_fd_sc_hd__tapvpwrvgnd_1
XFILLER_0_29_615 VGND VGND VPWR VPWR sky130_fd_sc_hd__fill_1
XFILLER_0_56_401 VPWR VGND VPWR VGND sky130_ef_sc_hd__decap_12
XTAP_2172 VGND VPWR sky130_fd_sc_hd__tapvpwrvgnd_1
XTAP_2183 VGND VPWR sky130_fd_sc_hd__tapvpwrvgnd_1
XFILLER_0_96_581 VGND VGND VPWR VPWR sky130_fd_sc_hd__decap_6
XTAP_2194 VGND VPWR sky130_fd_sc_hd__tapvpwrvgnd_1
XFILLER_0_111_1007 VGND VGND VPWR VPWR sky130_fd_sc_hd__fill_1
XFILLER_0_158_469 VGND VGND VPWR VPWR sky130_fd_sc_hd__decap_6
XTAP_1460 VGND VPWR sky130_fd_sc_hd__tapvpwrvgnd_1
XFILLER_0_173_417 VPWR VGND VPWR VGND sky130_ef_sc_hd__decap_12
XFILLER_0_56_445 VPWR VGND VPWR VGND sky130_ef_sc_hd__decap_12
XTAP_1471 VGND VPWR sky130_fd_sc_hd__tapvpwrvgnd_1
XTAP_1482 VGND VPWR sky130_fd_sc_hd__tapvpwrvgnd_1
XFILLER_0_84_765 VGND VGND VPWR VPWR sky130_fd_sc_hd__fill_2
XFILLER_0_126_300 VGND VGND VPWR VPWR sky130_fd_sc_hd__decap_8
XFILLER_0_167_992 VPWR VGND VPWR VGND sky130_ef_sc_hd__decap_12
XTAP_1493 VGND VPWR sky130_fd_sc_hd__tapvpwrvgnd_1
XFILLER_0_16_309 VPWR VGND VPWR VGND sky130_ef_sc_hd__decap_12
XFILLER_0_126_322 VPWR VGND VPWR VGND sky130_ef_sc_hd__decap_12
XFILLER_0_56_489 VPWR VGND VPWR VGND sky130_ef_sc_hd__decap_12
XFILLER_0_72_949 VPWR VGND VPWR VGND sky130_ef_sc_hd__decap_12
XFILLER_0_25_821 VPWR VGND VPWR VGND sky130_ef_sc_hd__decap_12
XFILLER_0_9_27 VPWR VGND VPWR VGND sky130_ef_sc_hd__decap_12
XFILLER_0_127_889 VGND VGND VPWR VPWR sky130_fd_sc_hd__decap_6
X_0822_ _0494_ _0510_ _0513_ regs\[0\]\[2\] VGND VGND VPWR VPWR _0018_ sky130_fd_sc_hd__a22o_2
XFILLER_0_142_837 VPWR VGND VPWR VGND sky130_ef_sc_hd__decap_12
XFILLER_0_25_865 VPWR VGND VPWR VGND sky130_ef_sc_hd__decap_12
XFILLER_0_3_225 VPWR VGND VPWR VGND sky130_ef_sc_hd__decap_12
XFILLER_0_40_813 VPWR VGND VPWR VGND sky130_ef_sc_hd__decap_12
XFILLER_0_10_41 VPWR VGND VPWR VGND sky130_ef_sc_hd__decap_12
X_0753_ _0463_ _0464_ _0311_ VGND VGND VPWR VPWR _0465_ sky130_fd_sc_hd__mux2_2
XFILLER_0_51_161 VGND VGND VPWR VPWR sky130_fd_sc_hd__decap_6
XFILLER_0_80_993 VPWR VGND VPWR VGND sky130_ef_sc_hd__decap_12
XFILLER_0_141_369 VPWR VGND VPWR VGND sky130_ef_sc_hd__decap_12
XFILLER_0_110_701 VPWR VGND VPWR VGND sky130_ef_sc_hd__decap_12
XFILLER_0_10_85 VPWR VGND VPWR VGND sky130_ef_sc_hd__decap_12
XFILLER_0_150_881 VPWR VGND VPWR VGND sky130_ef_sc_hd__decap_12
XFILLER_0_0_921 VGND VGND VPWR VPWR sky130_fd_sc_hd__decap_3
X_0684_ _0289_ _0394_ _0396_ _0402_ VGND VGND VPWR VPWR data_out[7] sky130_fd_sc_hd__o22a_2
Xclkbuf_3_1_0_clk clknet_0_clk VGND VGND VPWR VPWR clknet_3_1_0_clk sky130_fd_sc_hd__clkbuf_8
XFILLER_0_20_570 VGND VGND VPWR VPWR sky130_fd_sc_hd__fill_2
XFILLER_0_0_965 VPWR VGND VPWR VGND sky130_ef_sc_hd__decap_12
X_1305_ clknet_leaf_83_clk _0165_ VGND VGND VPWR VPWR regs\[11\]\[5\] sky130_fd_sc_hd__dfxtp_2
X_1236_ clknet_leaf_28_clk _0096_ VGND VGND VPWR VPWR regs\[15\]\[0\] sky130_fd_sc_hd__dfxtp_2
X_1167_ clknet_3_1_0_clk _0027_ VGND VGND VPWR VPWR regs\[0\]\[11\] sky130_fd_sc_hd__dfxtp_2
XFILLER_0_79_559 VGND VGND VPWR VPWR sky130_fd_sc_hd__fill_1
XFILLER_0_35_93 VPWR VGND VPWR VGND sky130_ef_sc_hd__decap_12
XFILLER_0_66_209 VPWR VGND VPWR VGND sky130_ef_sc_hd__decap_12
X_1098_ _0277_ VGND VGND VPWR VPWR _0278_ sky130_fd_sc_hd__buf_1
XFILLER_0_149_447 VGND VGND VPWR VPWR sky130_fd_sc_hd__fill_1
XFILLER_0_59_261 VPWR VGND VPWR VGND sky130_ef_sc_hd__decap_12
XFILLER_0_75_721 VGND VGND VPWR VPWR sky130_fd_sc_hd__decap_6
XFILLER_0_19_125 VPWR VGND VPWR VGND sky130_ef_sc_hd__decap_12
XFILLER_0_164_406 VPWR VGND VPWR VGND sky130_ef_sc_hd__decap_12
XFILLER_0_48_979 VGND VGND VPWR VPWR sky130_fd_sc_hd__fill_1
XFILLER_0_75_765 VPWR VGND VPWR VGND sky130_ef_sc_hd__decap_12
XFILLER_0_74_253 VPWR VGND VPWR VGND sky130_ef_sc_hd__decap_12
XFILLER_0_19_169 VPWR VGND VPWR VGND sky130_ef_sc_hd__decap_12
XFILLER_0_90_713 VPWR VGND VPWR VGND sky130_ef_sc_hd__decap_12
XFILLER_0_173_951 VGND VGND VPWR VPWR sky130_fd_sc_hd__fill_1
XFILLER_0_35_629 VPWR VGND VPWR VGND sky130_ef_sc_hd__decap_12
XFILLER_0_129_193 VPWR VGND VPWR VGND sky130_ef_sc_hd__decap_12
XFILLER_0_142_83 VGND VGND VPWR VPWR sky130_fd_sc_hd__fill_1
XFILLER_0_51_81 VPWR VGND VPWR VGND sky130_ef_sc_hd__decap_12
XFILLER_0_118_867 VGND VGND VPWR VPWR sky130_fd_sc_hd__fill_1
XFILLER_0_145_653 VPWR VGND VPWR VGND sky130_ef_sc_hd__decap_12
XFILLER_0_28_681 VPWR VGND VPWR VGND sky130_ef_sc_hd__decap_12
XFILLER_0_7_553 VGND VGND VPWR VPWR sky130_fd_sc_hd__decap_6
XFILLER_0_144_141 VPWR VGND VPWR VGND sky130_ef_sc_hd__decap_12
XFILLER_0_34_139 VGND VGND VPWR VPWR sky130_fd_sc_hd__fill_1
XFILLER_0_90_757 VGND VGND VPWR VPWR sky130_fd_sc_hd__decap_8
XFILLER_0_160_601 VPWR VGND VPWR VGND sky130_ef_sc_hd__decap_12
XFILLER_0_105_517 VPWR VGND VPWR VGND sky130_ef_sc_hd__decap_12
XFILLER_0_43_640 VGND VGND VPWR VPWR sky130_fd_sc_hd__fill_2
XFILLER_0_145_697 VPWR VGND VPWR VGND sky130_ef_sc_hd__decap_12
XFILLER_0_15_353 VGND VGND VPWR VPWR sky130_fd_sc_hd__fill_1