*SPEF "ieee 1481-1999"
*DESIGN "register_file"
*DATE "11:11:11 Fri 11 11, 1111"
*VENDOR "OpenRCX"
*PROGRAM "Parallel Extraction"
*VERSION "1.0"
*DESIGN_FLOW "NAME_SCOPE LOCAL" "PIN_CAP NONE"
*DIVIDER /
*DELIMITER :
*BUS_DELIMITER []
*T_UNIT 1 NS
*C_UNIT 1 PF
*R_UNIT 1 OHM
*L_UNIT 1 HENRY

*NAME_MAP
*3 address[0]
*4 address[10]
*5 address[11]
*6 address[12]
*7 address[13]
*8 address[14]
*9 address[15]
*10 address[1]
*11 address[2]
*12 address[3]
*13 address[4]
*14 address[5]
*15 address[6]
*16 address[7]
*17 address[8]
*18 address[9]
*19 clk
*20 data_in[0]
*21 data_in[10]
*22 data_in[11]
*23 data_in[12]
*24 data_in[13]
*25 data_in[14]
*26 data_in[15]
*27 data_in[1]
*28 data_in[2]
*29 data_in[3]
*30 data_in[4]
*31 data_in[5]
*32 data_in[6]
*33 data_in[7]
*34 data_in[8]
*35 data_in[9]
*36 data_out[0]
*37 data_out[10]
*38 data_out[11]
*39 data_out[12]
*40 data_out[13]
*41 data_out[14]
*42 data_out[15]
*43 data_out[1]
*44 data_out[2]
*45 data_out[3]
*46 data_out[4]
*47 data_out[5]
*48 data_out[6]
*49 data_out[7]
*50 data_out[8]
*51 data_out[9]
*52 rst
*53 we
*54 _0000_
*55 _0001_
*56 _0002_
*57 _0003_
*58 _0004_
*59 _0005_
*60 _0006_
*61 _0007_
*62 _0008_
*63 _0009_
*64 _0010_
*65 _0011_
*66 _0012_
*67 _0013_
*68 _0014_
*69 _0015_
*70 _0016_
*71 _0017_
*72 _0018_
*73 _0019_
*74 _0020_
*75 _0021_
*76 _0022_
*77 _0023_
*78 _0024_
*79 _0025_
*80 _0026_
*81 _0027_
*82 _0028_
*83 _0029_
*84 _0030_
*85 _0031_
*86 _0032_
*87 _0033_
*88 _0034_
*89 _0035_
*90 _0036_
*91 _0037_
*92 _0038_
*93 _0039_
*94 _0040_
*95 _0041_
*96 _0042_
*97 _0043_
*98 _0044_
*99 _0045_
*100 _0046_
*101 _0047_
*102 _0048_
*103 _0049_
*104 _0050_
*105 _0051_
*106 _0052_
*107 _0053_
*108 _0054_
*109 _0055_
*110 _0056_
*111 _0057_
*112 _0058_
*113 _0059_
*114 _0060_
*115 _0061_
*116 _0062_
*117 _0063_
*118 _0064_
*119 _0065_
*120 _0066_
*121 _0067_
*122 _0068_
*123 _0069_
*124 _0070_
*125 _0071_
*126 _0072_
*127 _0073_
*128 _0074_
*129 _0075_
*130 _0076_
*131 _0077_
*132 _0078_
*133 _0079_
*134 _0080_
*135 _0081_
*136 _0082_
*137 _0083_
*138 _0084_
*139 _0085_
*140 _0086_
*141 _0087_
*142 _0088_
*143 _0089_
*144 _0090_
*145 _0091_
*146 _0092_
*147 _0093_
*148 _0094_
*149 _0095_
*150 _0096_
*151 _0097_
*152 _0098_
*153 _0099_
*154 _0100_
*155 _0101_
*156 _0102_
*157 _0103_
*158 _0104_
*159 _0105_
*160 _0106_
*161 _0107_
*162 _0108_
*163 _0109_
*164 _0110_
*165 _0111_
*166 _0112_
*167 _0113_
*168 _0114_
*169 _0115_
*170 _0116_
*171 _0117_
*172 _0118_
*173 _0119_
*174 _0120_
*175 _0121_
*176 _0122_
*177 _0123_
*178 _0124_
*179 _0125_
*180 _0126_
*181 _0127_
*182 _0128_
*183 _0129_
*184 _0130_
*185 _0131_
*186 _0132_
*187 _0133_
*188 _0134_
*189 _0135_
*190 _0136_
*191 _0137_
*192 _0138_
*193 _0139_
*194 _0140_
*195 _0141_
*196 _0142_
*197 _0143_
*198 _0144_
*199 _0145_
*200 _0146_
*201 _0147_
*202 _0148_
*203 _0149_
*204 _0150_
*205 _0151_
*206 _0152_
*207 _0153_
*208 _0154_
*209 _0155_
*210 _0156_
*211 _0157_
*212 _0158_
*213 _0159_
*214 _0160_
*215 _0161_
*216 _0162_
*217 _0163_
*218 _0164_
*219 _0165_
*220 _0166_
*221 _0167_
*222 _0168_
*223 _0169_
*224 _0170_
*225 _0171_
*226 _0172_
*227 _0173_
*228 _0174_
*229 _0175_
*230 _0176_
*231 _0177_
*232 _0178_
*233 _0179_
*234 _0180_
*235 _0181_
*236 _0182_
*237 _0183_
*238 _0184_
*239 _0185_
*240 _0186_
*241 _0187_
*242 _0188_
*243 _0189_
*244 _0190_
*245 _0191_
*246 _0192_
*247 _0193_
*248 _0194_
*249 _0195_
*250 _0196_
*251 _0197_
*252 _0198_
*253 _0199_
*254 _0200_
*255 _0201_
*256 _0202_
*257 _0203_
*258 _0204_
*259 _0205_
*260 _0206_
*261 _0207_
*262 _0208_
*263 _0209_
*264 _0210_
*265 _0211_
*266 _0212_
*267 _0213_
*268 _0214_
*269 _0215_
*270 _0216_
*271 _0217_
*272 _0218_
*273 _0219_
*274 _0220_
*275 _0221_
*276 _0222_
*277 _0223_
*278 _0224_
*279 _0225_
*280 _0226_
*281 _0227_
*282 _0228_
*283 _0229_
*284 _0230_
*285 _0231_
*286 _0232_
*287 _0233_
*288 _0234_
*289 _0235_
*290 _0236_
*291 _0237_
*292 _0238_
*293 _0239_
*294 _0240_
*295 _0241_
*296 _0242_
*297 _0243_
*298 _0244_
*299 _0245_
*300 _0246_
*301 _0247_
*302 _0248_
*303 _0249_
*304 _0250_
*305 _0251_
*306 _0252_
*307 _0253_
*308 _0254_
*309 _0255_
*310 _0256_
*311 _0257_
*312 _0258_
*313 _0259_
*314 _0260_
*315 _0261_
*316 _0262_
*317 _0263_
*318 _0264_
*319 _0265_
*320 _0266_
*321 _0267_
*322 _0268_
*323 _0269_
*324 _0270_
*325 _0271_
*326 _0272_
*327 _0273_
*328 _0274_
*329 _0275_
*330 _0276_
*331 _0277_
*332 _0278_
*333 _0279_
*334 _0280_
*335 _0281_
*336 _0282_
*337 _0283_
*338 _0284_
*339 _0285_
*340 _0286_
*341 _0287_
*342 _0288_
*343 _0289_
*344 _0290_
*345 _0291_
*346 _0292_
*347 _0293_
*348 _0294_
*349 _0295_
*350 _0296_
*351 _0297_
*352 _0298_
*353 _0299_
*354 _0300_
*355 _0301_
*356 _0302_
*357 _0303_
*358 _0304_
*359 _0305_
*360 _0306_
*361 _0307_
*362 _0308_
*363 _0309_
*364 _0310_
*365 _0311_
*366 _0312_
*367 _0313_
*368 _0314_
*369 _0315_
*370 _0316_
*371 _0317_
*372 _0318_
*373 _0319_
*374 _0320_
*375 _0321_
*376 _0322_
*377 _0323_
*378 _0324_
*379 _0325_
*380 _0326_
*381 _0327_
*382 _0328_
*383 _0329_
*384 _0330_
*385 _0331_
*386 _0332_
*387 _0333_
*388 _0334_
*389 _0335_
*390 _0336_
*391 _0337_
*392 _0338_
*393 _0339_
*394 _0340_
*395 _0341_
*396 _0342_
*397 _0343_
*398 _0344_
*399 _0345_
*400 _0346_
*401 _0347_
*402 _0348_
*403 _0349_
*404 _0350_
*405 _0351_
*406 _0352_
*407 _0353_
*408 _0354_
*409 _0355_
*410 _0356_
*411 _0357_
*412 _0358_
*413 _0359_
*414 _0360_
*415 _0361_
*416 _0362_
*417 _0363_
*418 _0364_
*419 _0365_
*420 _0366_
*421 _0367_
*422 _0368_
*423 _0369_
*424 _0370_
*425 _0371_
*426 _0372_
*427 _0373_
*428 _0374_
*429 _0375_
*430 _0376_
*431 _0377_
*432 _0378_
*433 _0379_
*434 _0380_
*435 _0381_
*436 _0382_
*437 _0383_
*438 _0384_
*439 _0385_
*440 _0386_
*441 _0387_
*442 _0388_
*443 _0389_
*444 _0390_
*445 _0391_
*446 _0392_
*447 _0393_
*448 _0394_
*449 _0395_
*450 _0396_
*451 _0397_
*452 _0398_
*453 _0399_
*454 _0400_
*455 _0401_
*456 _0402_
*457 _0403_
*458 _0404_
*459 _0405_
*460 _0406_
*461 _0407_
*462 _0408_
*463 _0409_
*464 _0410_
*465 _0411_
*466 _0412_
*467 _0413_
*468 _0414_
*469 _0415_
*470 _0416_
*471 _0417_
*472 _0418_
*473 _0419_
*474 _0420_
*475 _0421_
*476 _0422_
*477 _0423_
*478 _0424_
*479 _0425_
*480 _0426_
*481 _0427_
*482 _0428_
*483 _0429_
*484 _0430_
*485 _0431_
*486 _0432_
*487 _0433_
*488 _0434_
*489 _0435_
*490 _0436_
*491 _0437_
*492 _0438_
*493 _0439_
*494 _0440_
*495 _0441_
*496 _0442_
*497 _0443_
*498 _0444_
*499 _0445_
*500 _0446_
*501 _0447_
*502 _0448_
*503 _0449_
*504 _0450_
*505 _0451_
*506 _0452_
*507 _0453_
*508 _0454_
*509 _0455_
*510 _0456_
*511 _0457_
*512 _0458_
*513 _0459_
*514 _0460_
*515 _0461_
*516 _0462_
*517 _0463_
*518 _0464_
*519 _0465_
*520 _0466_
*521 _0467_
*522 _0468_
*523 _0469_
*524 _0470_
*525 _0471_
*526 _0472_
*527 _0473_
*528 _0474_
*529 _0475_
*530 _0476_
*531 _0477_
*532 _0478_
*533 _0479_
*534 _0480_
*535 _0481_
*536 _0482_
*537 _0483_
*538 _0484_
*539 _0485_
*540 _0486_
*541 _0487_
*542 _0488_
*543 _0489_
*544 _0490_
*545 _0491_
*546 _0492_
*547 _0493_
*548 _0494_
*549 _0495_
*550 _0496_
*551 _0497_
*552 _0498_
*553 _0499_
*554 _0500_
*555 _0501_
*556 _0502_
*557 _0503_
*558 _0504_
*559 _0505_
*560 _0506_
*561 _0507_
*562 _0508_
*563 _0509_
*564 _0510_
*565 _0511_
*566 _0512_
*567 _0513_
*568 _0514_
*569 _0515_
*570 _0516_
*571 _0517_
*572 _0518_
*573 _0519_
*574 _0520_
*575 _0521_
*576 _0522_
*577 _0523_
*578 _0524_
*579 _0525_
*580 _0526_
*581 _0527_
*582 _0528_
*583 _0529_
*584 _0530_
*585 _0531_
*586 _0532_
*587 _0533_
*588 _0534_
*589 _0535_
*590 _0536_
*591 _0537_
*592 _0538_
*593 _0539_
*594 _0540_
*595 _0541_
*596 _0542_
*597 _0543_
*598 _0544_
*599 _0545_
*600 _0546_
*601 _0547_
*602 _0548_
*603 _0549_
*604 _0550_
*605 _0551_
*606 _0552_
*607 _0553_
*608 _0554_
*609 _0555_
*610 _0556_
*611 _0557_
*612 _0558_
*613 _0559_
*614 _0560_
*615 _0561_
*616 clknet_0_clk
*617 clknet_3_0_0_clk
*618 clknet_3_1_0_clk
*619 clknet_3_2_0_clk
*620 clknet_3_3_0_clk
*621 clknet_3_4_0_clk
*622 clknet_3_5_0_clk
*623 clknet_3_6_0_clk
*624 clknet_3_7_0_clk
*625 clknet_leaf_0_clk
*626 clknet_leaf_100_clk
*627 clknet_leaf_10_clk
*628 clknet_leaf_11_clk
*629 clknet_leaf_13_clk
*630 clknet_leaf_14_clk
*631 clknet_leaf_15_clk
*632 clknet_leaf_16_clk
*633 clknet_leaf_18_clk
*634 clknet_leaf_19_clk
*635 clknet_leaf_1_clk
*636 clknet_leaf_20_clk
*637 clknet_leaf_22_clk
*638 clknet_leaf_23_clk
*639 clknet_leaf_24_clk
*640 clknet_leaf_25_clk
*641 clknet_leaf_26_clk
*642 clknet_leaf_27_clk
*643 clknet_leaf_28_clk
*644 clknet_leaf_29_clk
*645 clknet_leaf_2_clk
*646 clknet_leaf_31_clk
*647 clknet_leaf_32_clk
*648 clknet_leaf_33_clk
*649 clknet_leaf_34_clk
*650 clknet_leaf_37_clk
*651 clknet_leaf_38_clk
*652 clknet_leaf_39_clk
*653 clknet_leaf_3_clk
*654 clknet_leaf_41_clk
*655 clknet_leaf_42_clk
*656 clknet_leaf_43_clk
*657 clknet_leaf_44_clk
*658 clknet_leaf_46_clk
*659 clknet_leaf_47_clk
*660 clknet_leaf_48_clk
*661 clknet_leaf_50_clk
*662 clknet_leaf_52_clk
*663 clknet_leaf_53_clk
*664 clknet_leaf_54_clk
*665 clknet_leaf_56_clk
*666 clknet_leaf_57_clk
*667 clknet_leaf_58_clk
*668 clknet_leaf_59_clk
*669 clknet_leaf_5_clk
*670 clknet_leaf_60_clk
*671 clknet_leaf_62_clk
*672 clknet_leaf_63_clk
*673 clknet_leaf_64_clk
*674 clknet_leaf_65_clk
*675 clknet_leaf_66_clk
*676 clknet_leaf_68_clk
*677 clknet_leaf_69_clk
*678 clknet_leaf_6_clk
*679 clknet_leaf_71_clk
*680 clknet_leaf_72_clk
*681 clknet_leaf_73_clk
*682 clknet_leaf_74_clk
*683 clknet_leaf_75_clk
*684 clknet_leaf_76_clk
*685 clknet_leaf_77_clk
*686 clknet_leaf_78_clk
*687 clknet_leaf_79_clk
*688 clknet_leaf_82_clk
*689 clknet_leaf_83_clk
*690 clknet_leaf_84_clk
*691 clknet_leaf_85_clk
*692 clknet_leaf_86_clk
*693 clknet_leaf_88_clk
*694 clknet_leaf_89_clk
*695 clknet_leaf_8_clk
*696 clknet_leaf_90_clk
*697 clknet_leaf_91_clk
*698 clknet_leaf_93_clk
*699 clknet_leaf_94_clk
*700 clknet_leaf_95_clk
*701 clknet_leaf_97_clk
*702 clknet_leaf_99_clk
*703 regs\[0\]\[0\]
*704 regs\[0\]\[10\]
*705 regs\[0\]\[11\]
*706 regs\[0\]\[12\]
*707 regs\[0\]\[13\]
*708 regs\[0\]\[14\]
*709 regs\[0\]\[15\]
*710 regs\[0\]\[1\]
*711 regs\[0\]\[2\]
*712 regs\[0\]\[3\]
*713 regs\[0\]\[4\]
*714 regs\[0\]\[5\]
*715 regs\[0\]\[6\]
*716 regs\[0\]\[7\]
*717 regs\[0\]\[8\]
*718 regs\[0\]\[9\]
*719 regs\[10\]\[0\]
*720 regs\[10\]\[10\]
*721 regs\[10\]\[11\]
*722 regs\[10\]\[12\]
*723 regs\[10\]\[13\]
*724 regs\[10\]\[14\]
*725 regs\[10\]\[15\]
*726 regs\[10\]\[1\]
*727 regs\[10\]\[2\]
*728 regs\[10\]\[3\]
*729 regs\[10\]\[4\]
*730 regs\[10\]\[5\]
*731 regs\[10\]\[6\]
*732 regs\[10\]\[7\]
*733 regs\[10\]\[8\]
*734 regs\[10\]\[9\]
*735 regs\[11\]\[0\]
*736 regs\[11\]\[10\]
*737 regs\[11\]\[11\]
*738 regs\[11\]\[12\]
*739 regs\[11\]\[13\]
*740 regs\[11\]\[14\]
*741 regs\[11\]\[15\]
*742 regs\[11\]\[1\]
*743 regs\[11\]\[2\]
*744 regs\[11\]\[3\]
*745 regs\[11\]\[4\]
*746 regs\[11\]\[5\]
*747 regs\[11\]\[6\]
*748 regs\[11\]\[7\]
*749 regs\[11\]\[8\]
*750 regs\[11\]\[9\]
*751 regs\[12\]\[0\]
*752 regs\[12\]\[10\]
*753 regs\[12\]\[11\]
*754 regs\[12\]\[12\]
*755 regs\[12\]\[13\]
*756 regs\[12\]\[14\]
*757 regs\[12\]\[15\]
*758 regs\[12\]\[1\]
*759 regs\[12\]\[2\]
*760 regs\[12\]\[3\]
*761 regs\[12\]\[4\]
*762 regs\[12\]\[5\]
*763 regs\[12\]\[6\]
*764 regs\[12\]\[7\]
*765 regs\[12\]\[8\]
*766 regs\[12\]\[9\]
*767 regs\[13\]\[0\]
*768 regs\[13\]\[10\]
*769 regs\[13\]\[11\]
*770 regs\[13\]\[12\]
*771 regs\[13\]\[13\]
*772 regs\[13\]\[14\]
*773 regs\[13\]\[15\]
*774 regs\[13\]\[1\]
*775 regs\[13\]\[2\]
*776 regs\[13\]\[3\]
*777 regs\[13\]\[4\]
*778 regs\[13\]\[5\]
*779 regs\[13\]\[6\]
*780 regs\[13\]\[7\]
*781 regs\[13\]\[8\]
*782 regs\[13\]\[9\]
*783 regs\[14\]\[0\]
*784 regs\[14\]\[10\]
*785 regs\[14\]\[11\]
*786 regs\[14\]\[12\]
*787 regs\[14\]\[13\]
*788 regs\[14\]\[14\]
*789 regs\[14\]\[15\]
*790 regs\[14\]\[1\]
*791 regs\[14\]\[2\]
*792 regs\[14\]\[3\]
*793 regs\[14\]\[4\]
*794 regs\[14\]\[5\]
*795 regs\[14\]\[6\]
*796 regs\[14\]\[7\]
*797 regs\[14\]\[8\]
*798 regs\[14\]\[9\]
*799 regs\[15\]\[0\]
*800 regs\[15\]\[10\]
*801 regs\[15\]\[11\]
*802 regs\[15\]\[12\]
*803 regs\[15\]\[13\]
*804 regs\[15\]\[14\]
*805 regs\[15\]\[15\]
*806 regs\[15\]\[1\]
*807 regs\[15\]\[2\]
*808 regs\[15\]\[3\]
*809 regs\[15\]\[4\]
*810 regs\[15\]\[5\]
*811 regs\[15\]\[6\]
*812 regs\[15\]\[7\]
*813 regs\[15\]\[8\]
*814 regs\[15\]\[9\]
*815 regs\[1\]\[0\]
*816 regs\[1\]\[10\]
*817 regs\[1\]\[11\]
*818 regs\[1\]\[12\]
*819 regs\[1\]\[13\]
*820 regs\[1\]\[14\]
*821 regs\[1\]\[15\]
*822 regs\[1\]\[1\]
*823 regs\[1\]\[2\]
*824 regs\[1\]\[3\]
*825 regs\[1\]\[4\]
*826 regs\[1\]\[5\]
*827 regs\[1\]\[6\]
*828 regs\[1\]\[7\]
*829 regs\[1\]\[8\]
*830 regs\[1\]\[9\]
*831 regs\[2\]\[0\]
*832 regs\[2\]\[10\]
*833 regs\[2\]\[11\]
*834 regs\[2\]\[12\]
*835 regs\[2\]\[13\]
*836 regs\[2\]\[14\]
*837 regs\[2\]\[15\]
*838 regs\[2\]\[1\]
*839 regs\[2\]\[2\]
*840 regs\[2\]\[3\]
*841 regs\[2\]\[4\]
*842 regs\[2\]\[5\]
*843 regs\[2\]\[6\]
*844 regs\[2\]\[7\]
*845 regs\[2\]\[8\]
*846 regs\[2\]\[9\]
*847 regs\[3\]\[0\]
*848 regs\[3\]\[10\]
*849 regs\[3\]\[11\]
*850 regs\[3\]\[12\]
*851 regs\[3\]\[13\]
*852 regs\[3\]\[14\]
*853 regs\[3\]\[15\]
*854 regs\[3\]\[1\]
*855 regs\[3\]\[2\]
*856 regs\[3\]\[3\]
*857 regs\[3\]\[4\]
*858 regs\[3\]\[5\]
*859 regs\[3\]\[6\]
*860 regs\[3\]\[7\]
*861 regs\[3\]\[8\]
*862 regs\[3\]\[9\]
*863 regs\[4\]\[0\]
*864 regs\[4\]\[10\]
*865 regs\[4\]\[11\]
*866 regs\[4\]\[12\]
*867 regs\[4\]\[13\]
*868 regs\[4\]\[14\]
*869 regs\[4\]\[15\]
*870 regs\[4\]\[1\]
*871 regs\[4\]\[2\]
*872 regs\[4\]\[3\]
*873 regs\[4\]\[4\]
*874 regs\[4\]\[5\]
*875 regs\[4\]\[6\]
*876 regs\[4\]\[7\]
*877 regs\[4\]\[8\]
*878 regs\[4\]\[9\]
*879 regs\[5\]\[0\]
*880 regs\[5\]\[10\]
*881 regs\[5\]\[11\]
*882 regs\[5\]\[12\]
*883 regs\[5\]\[13\]
*884 regs\[5\]\[14\]
*885 regs\[5\]\[15\]
*886 regs\[5\]\[1\]
*887 regs\[5\]\[2\]
*888 regs\[5\]\[3\]
*889 regs\[5\]\[4\]
*890 regs\[5\]\[5\]
*891 regs\[5\]\[6\]
*892 regs\[5\]\[7\]
*893 regs\[5\]\[8\]
*894 regs\[5\]\[9\]
*895 regs\[6\]\[0\]
*896 regs\[6\]\[10\]
*897 regs\[6\]\[11\]
*898 regs\[6\]\[12\]
*899 regs\[6\]\[13\]
*900 regs\[6\]\[14\]
*901 regs\[6\]\[15\]
*902 regs\[6\]\[1\]
*903 regs\[6\]\[2\]
*904 regs\[6\]\[3\]
*905 regs\[6\]\[4\]
*906 regs\[6\]\[5\]
*907 regs\[6\]\[6\]
*908 regs\[6\]\[7\]
*909 regs\[6\]\[8\]
*910 regs\[6\]\[9\]
*911 regs\[7\]\[0\]
*912 regs\[7\]\[10\]
*913 regs\[7\]\[11\]
*914 regs\[7\]\[12\]
*915 regs\[7\]\[13\]
*916 regs\[7\]\[14\]
*917 regs\[7\]\[15\]
*918 regs\[7\]\[1\]
*919 regs\[7\]\[2\]
*920 regs\[7\]\[3\]
*921 regs\[7\]\[4\]
*922 regs\[7\]\[5\]
*923 regs\[7\]\[6\]
*924 regs\[7\]\[7\]
*925 regs\[7\]\[8\]
*926 regs\[7\]\[9\]
*927 regs\[8\]\[0\]
*928 regs\[8\]\[10\]
*929 regs\[8\]\[11\]
*930 regs\[8\]\[12\]
*931 regs\[8\]\[13\]
*932 regs\[8\]\[14\]
*933 regs\[8\]\[15\]
*934 regs\[8\]\[1\]
*935 regs\[8\]\[2\]
*936 regs\[8\]\[3\]
*937 regs\[8\]\[4\]
*938 regs\[8\]\[5\]
*939 regs\[8\]\[6\]
*940 regs\[8\]\[7\]
*941 regs\[8\]\[8\]
*942 regs\[8\]\[9\]
*943 regs\[9\]\[0\]
*944 regs\[9\]\[10\]
*945 regs\[9\]\[11\]
*946 regs\[9\]\[12\]
*947 regs\[9\]\[13\]
*948 regs\[9\]\[14\]
*949 regs\[9\]\[15\]
*950 regs\[9\]\[1\]
*951 regs\[9\]\[2\]
*952 regs\[9\]\[3\]
*953 regs\[9\]\[4\]
*954 regs\[9\]\[5\]
*955 regs\[9\]\[6\]
*956 regs\[9\]\[7\]
*957 regs\[9\]\[8\]
*958 regs\[9\]\[9\]
*959 ANTENNA_1
*960 ANTENNA_10
*961 ANTENNA_100
*962 ANTENNA_101
*963 ANTENNA_102
*964 ANTENNA_103
*965 ANTENNA_104
*966 ANTENNA_105
*967 ANTENNA_106
*968 ANTENNA_107
*969 ANTENNA_108
*970 ANTENNA_109
*971 ANTENNA_11
*972 ANTENNA_110
*973 ANTENNA_111
*974 ANTENNA_112
*975 ANTENNA_113
*976 ANTENNA_114
*977 ANTENNA_115
*978 ANTENNA_116
*979 ANTENNA_117
*980 ANTENNA_118
*981 ANTENNA_119
*982 ANTENNA_12
*983 ANTENNA_120
*984 ANTENNA_121
*985 ANTENNA_122
*986 ANTENNA_123
*987 ANTENNA_124
*988 ANTENNA_125
*989 ANTENNA_126
*990 ANTENNA_127
*991 ANTENNA_128
*992 ANTENNA_129
*993 ANTENNA_13
*994 ANTENNA_130
*995 ANTENNA_131
*996 ANTENNA_132
*997 ANTENNA_133
*998 ANTENNA_134
*999 ANTENNA_135
*1000 ANTENNA_136
*1001 ANTENNA_137
*1002 ANTENNA_138
*1003 ANTENNA_139
*1004 ANTENNA_14
*1005 ANTENNA_140
*1006 ANTENNA_141
*1007 ANTENNA_142
*1008 ANTENNA_143
*1009 ANTENNA_144
*1010 ANTENNA_145
*1011 ANTENNA_146
*1012 ANTENNA_147
*1013 ANTENNA_148
*1014 ANTENNA_149
*1015 ANTENNA_15
*1016 ANTENNA_150
*1017 ANTENNA_151
*1018 ANTENNA_152
*1019 ANTENNA_153
*1020 ANTENNA_154
*1021 ANTENNA_155
*1022 ANTENNA_156
*1023 ANTENNA_157
*1024 ANTENNA_158
*1025 ANTENNA_159
*1026 ANTENNA_16
*1027 ANTENNA_160
*1028 ANTENNA_161
*1029 ANTENNA_162
*1030 ANTENNA_163
*1031 ANTENNA_164
*1032 ANTENNA_165
*1033 ANTENNA_166
*1034 ANTENNA_167
*1035 ANTENNA_168
*1036 ANTENNA_169
*1037 ANTENNA_17
*1038 ANTENNA_170
*1039 ANTENNA_171
*1040 ANTENNA_172
*1041 ANTENNA_173
*1042 ANTENNA_174
*1043 ANTENNA_175
*1044 ANTENNA_176
*1045 ANTENNA_177
*1046 ANTENNA_178
*1047 ANTENNA_179
*1048 ANTENNA_18
*1049 ANTENNA_180
*1050 ANTENNA_181
*1051 ANTENNA_182
*1052 ANTENNA_183
*1053 ANTENNA_184
*1054 ANTENNA_185
*1055 ANTENNA_186
*1056 ANTENNA_187
*1057 ANTENNA_188
*1058 ANTENNA_189
*1059 ANTENNA_19
*1060 ANTENNA_190
*1061 ANTENNA_191
*1062 ANTENNA_192
*1063 ANTENNA_193
*1064 ANTENNA_194
*1065 ANTENNA_195
*1066 ANTENNA_196
*1067 ANTENNA_197
*1068 ANTENNA_198
*1069 ANTENNA_199
*1070 ANTENNA_2
*1071 ANTENNA_20
*1072 ANTENNA_200
*1073 ANTENNA_201
*1074 ANTENNA_202
*1075 ANTENNA_203
*1076 ANTENNA_204
*1077 ANTENNA_205
*1078 ANTENNA_206
*1079 ANTENNA_207
*1080 ANTENNA_208
*1081 ANTENNA_209
*1082 ANTENNA_21
*1083 ANTENNA_210
*1084 ANTENNA_211
*1085 ANTENNA_212
*1086 ANTENNA_213
*1087 ANTENNA_214
*1088 ANTENNA_215
*1089 ANTENNA_216
*1090 ANTENNA_217
*1091 ANTENNA_218
*1092 ANTENNA_219
*1093 ANTENNA_22
*1094 ANTENNA_220
*1095 ANTENNA_221
*1096 ANTENNA_222
*1097 ANTENNA_223
*1098 ANTENNA_224
*1099 ANTENNA_225
*1100 ANTENNA_226
*1101 ANTENNA_227
*1102 ANTENNA_228
*1103 ANTENNA_229
*1104 ANTENNA_23
*1105 ANTENNA_230
*1106 ANTENNA_231
*1107 ANTENNA_232
*1108 ANTENNA_233
*1109 ANTENNA_234
*1110 ANTENNA_235
*1111 ANTENNA_236
*1112 ANTENNA_237
*1113 ANTENNA_238
*1114 ANTENNA_239
*1115 ANTENNA_24
*1116 ANTENNA_240
*1117 ANTENNA_241
*1118 ANTENNA_242
*1119 ANTENNA_243
*1120 ANTENNA_244
*1121 ANTENNA_245
*1122 ANTENNA_246
*1123 ANTENNA_247
*1124 ANTENNA_248
*1125 ANTENNA_249
*1126 ANTENNA_25
*1127 ANTENNA_250
*1128 ANTENNA_251
*1129 ANTENNA_252
*1130 ANTENNA_253
*1131 ANTENNA_254
*1132 ANTENNA_255
*1133 ANTENNA_256
*1134 ANTENNA_257
*1135 ANTENNA_258
*1136 ANTENNA_259
*1137 ANTENNA_26
*1138 ANTENNA_260
*1139 ANTENNA_261
*1140 ANTENNA_262
*1141 ANTENNA_263
*1142 ANTENNA_264
*1143 ANTENNA_265
*1144 ANTENNA_266
*1145 ANTENNA_267
*1146 ANTENNA_268
*1147 ANTENNA_269
*1148 ANTENNA_27
*1149 ANTENNA_270
*1150 ANTENNA_271
*1151 ANTENNA_272
*1152 ANTENNA_273
*1153 ANTENNA_274
*1154 ANTENNA_275
*1155 ANTENNA_276
*1156 ANTENNA_277
*1157 ANTENNA_278
*1158 ANTENNA_279
*1159 ANTENNA_28
*1160 ANTENNA_280
*1161 ANTENNA_281
*1162 ANTENNA_282
*1163 ANTENNA_283
*1164 ANTENNA_284
*1165 ANTENNA_285
*1166 ANTENNA_286
*1167 ANTENNA_287
*1168 ANTENNA_288
*1169 ANTENNA_289
*1170 ANTENNA_29
*1171 ANTENNA_290
*1172 ANTENNA_291
*1173 ANTENNA_292
*1174 ANTENNA_293
*1175 ANTENNA_294
*1176 ANTENNA_295
*1177 ANTENNA_296
*1178 ANTENNA_297
*1179 ANTENNA_298
*1180 ANTENNA_299
*1181 ANTENNA_3
*1182 ANTENNA_30
*1183 ANTENNA_300
*1184 ANTENNA_301
*1185 ANTENNA_302
*1186 ANTENNA_303
*1187 ANTENNA_304
*1188 ANTENNA_305
*1189 ANTENNA_306
*1190 ANTENNA_307
*1191 ANTENNA_308
*1192 ANTENNA_309
*1193 ANTENNA_31
*1194 ANTENNA_310
*1195 ANTENNA_311
*1196 ANTENNA_312
*1197 ANTENNA_313
*1198 ANTENNA_314
*1199 ANTENNA_315
*1200 ANTENNA_316
*1201 ANTENNA_317
*1202 ANTENNA_318
*1203 ANTENNA_319
*1204 ANTENNA_32
*1205 ANTENNA_320
*1206 ANTENNA_321
*1207 ANTENNA_322
*1208 ANTENNA_323
*1209 ANTENNA_324
*1210 ANTENNA_325
*1211 ANTENNA_326
*1212 ANTENNA_327
*1213 ANTENNA_328
*1214 ANTENNA_329
*1215 ANTENNA_33
*1216 ANTENNA_330
*1217 ANTENNA_331
*1218 ANTENNA_332
*1219 ANTENNA_333
*1220 ANTENNA_334
*1221 ANTENNA_335
*1222 ANTENNA_336
*1223 ANTENNA_337
*1224 ANTENNA_338
*1225 ANTENNA_339
*1226 ANTENNA_34
*1227 ANTENNA_340
*1228 ANTENNA_341
*1229 ANTENNA_342
*1230 ANTENNA_343
*1231 ANTENNA_344
*1232 ANTENNA_345
*1233 ANTENNA_346
*1234 ANTENNA_347
*1235 ANTENNA_348
*1236 ANTENNA_349
*1237 ANTENNA_35
*1238 ANTENNA_350
*1239 ANTENNA_351
*1240 ANTENNA_352
*1241 ANTENNA_353
*1242 ANTENNA_354
*1243 ANTENNA_355
*1244 ANTENNA_356
*1245 ANTENNA_357
*1246 ANTENNA_358
*1247 ANTENNA_359
*1248 ANTENNA_36
*1249 ANTENNA_360
*1250 ANTENNA_361
*1251 ANTENNA_362
*1252 ANTENNA_363
*1253 ANTENNA_364
*1254 ANTENNA_365
*1255 ANTENNA_366
*1256 ANTENNA_367
*1257 ANTENNA_368
*1258 ANTENNA_369
*1259 ANTENNA_37
*1260 ANTENNA_370
*1261 ANTENNA_371
*1262 ANTENNA_372
*1263 ANTENNA_373
*1264 ANTENNA_374
*1265 ANTENNA_375
*1266 ANTENNA_376
*1267 ANTENNA_377
*1268 ANTENNA_378
*1269 ANTENNA_379
*1270 ANTENNA_38
*1271 ANTENNA_380
*1272 ANTENNA_381
*1273 ANTENNA_382
*1274 ANTENNA_383
*1275 ANTENNA_384
*1276 ANTENNA_385
*1277 ANTENNA_386
*1278 ANTENNA_387
*1279 ANTENNA_388
*1280 ANTENNA_389
*1281 ANTENNA_39
*1282 ANTENNA_390
*1283 ANTENNA_391
*1284 ANTENNA_392
*1285 ANTENNA_393
*1286 ANTENNA_394
*1287 ANTENNA_395
*1288 ANTENNA_396
*1289 ANTENNA_397
*1290 ANTENNA_398
*1291 ANTENNA_399
*1292 ANTENNA_4
*1293 ANTENNA_40
*1294 ANTENNA_400
*1295 ANTENNA_401
*1296 ANTENNA_402
*1297 ANTENNA_403
*1298 ANTENNA_404
*1299 ANTENNA_405
*1300 ANTENNA_406
*1301 ANTENNA_407
*1302 ANTENNA_408
*1303 ANTENNA_409
*1304 ANTENNA_41
*1305 ANTENNA_410
*1306 ANTENNA_411
*1307 ANTENNA_412
*1308 ANTENNA_413
*1309 ANTENNA_414
*1310 ANTENNA_415
*1311 ANTENNA_416
*1312 ANTENNA_417
*1313 ANTENNA_418
*1314 ANTENNA_419
*1315 ANTENNA_42
*1316 ANTENNA_420
*1317 ANTENNA_421
*1318 ANTENNA_422
*1319 ANTENNA_423
*1320 ANTENNA_424
*1321 ANTENNA_425
*1322 ANTENNA_426
*1323 ANTENNA_427
*1324 ANTENNA_428
*1325 ANTENNA_429
*1326 ANTENNA_43
*1327 ANTENNA_430
*1328 ANTENNA_431
*1329 ANTENNA_432
*1330 ANTENNA_433
*1331 ANTENNA_434
*1332 ANTENNA_435
*1333 ANTENNA_436
*1334 ANTENNA_437
*1335 ANTENNA_438
*1336 ANTENNA_439
*1337 ANTENNA_44
*1338 ANTENNA_440
*1339 ANTENNA_441
*1340 ANTENNA_442
*1341 ANTENNA_443
*1342 ANTENNA_444
*1343 ANTENNA_445
*1344 ANTENNA_446
*1345 ANTENNA_447
*1346 ANTENNA_448
*1347 ANTENNA_449
*1348 ANTENNA_45
*1349 ANTENNA_450
*1350 ANTENNA_451
*1351 ANTENNA_452
*1352 ANTENNA_453
*1353 ANTENNA_454
*1354 ANTENNA_455
*1355 ANTENNA_456
*1356 ANTENNA_457
*1357 ANTENNA_458
*1358 ANTENNA_459
*1359 ANTENNA_46
*1360 ANTENNA_460
*1361 ANTENNA_461
*1362 ANTENNA_462
*1363 ANTENNA_463
*1364 ANTENNA_464
*1365 ANTENNA_465
*1366 ANTENNA_466
*1367 ANTENNA_467
*1368 ANTENNA_468
*1369 ANTENNA_469
*1370 ANTENNA_47
*1371 ANTENNA_470
*1372 ANTENNA_471
*1373 ANTENNA_472
*1374 ANTENNA_473
*1375 ANTENNA_474
*1376 ANTENNA_475
*1377 ANTENNA_476
*1378 ANTENNA_477
*1379 ANTENNA_478
*1380 ANTENNA_479
*1381 ANTENNA_48
*1382 ANTENNA_480
*1383 ANTENNA_481
*1384 ANTENNA_482
*1385 ANTENNA_483
*1386 ANTENNA_484
*1387 ANTENNA_485
*1388 ANTENNA_486
*1389 ANTENNA_487
*1390 ANTENNA_488
*1391 ANTENNA_489
*1392 ANTENNA_49
*1393 ANTENNA_490
*1394 ANTENNA_491
*1395 ANTENNA_492
*1396 ANTENNA_493
*1397 ANTENNA_494
*1398 ANTENNA_495
*1399 ANTENNA_496
*1400 ANTENNA_497
*1401 ANTENNA_498
*1402 ANTENNA_499
*1403 ANTENNA_5
*1404 ANTENNA_50
*1405 ANTENNA_500
*1406 ANTENNA_501
*1407 ANTENNA_502
*1408 ANTENNA_503
*1409 ANTENNA_504
*1410 ANTENNA_505
*1411 ANTENNA_506
*1412 ANTENNA_507
*1413 ANTENNA_508
*1414 ANTENNA_509
*1415 ANTENNA_51
*1416 ANTENNA_510
*1417 ANTENNA_511
*1418 ANTENNA_512
*1419 ANTENNA_513
*1420 ANTENNA_514
*1421 ANTENNA_515
*1422 ANTENNA_516
*1423 ANTENNA_517
*1424 ANTENNA_518
*1425 ANTENNA_519
*1426 ANTENNA_52
*1427 ANTENNA_520
*1428 ANTENNA_521
*1429 ANTENNA_522
*1430 ANTENNA_523
*1431 ANTENNA_524
*1432 ANTENNA_525
*1433 ANTENNA_526
*1434 ANTENNA_527
*1435 ANTENNA_528
*1436 ANTENNA_529
*1437 ANTENNA_53
*1438 ANTENNA_530
*1439 ANTENNA_531
*1440 ANTENNA_532
*1441 ANTENNA_533
*1442 ANTENNA_534
*1443 ANTENNA_535
*1444 ANTENNA_536
*1445 ANTENNA_537
*1446 ANTENNA_538
*1447 ANTENNA_539
*1448 ANTENNA_54
*1449 ANTENNA_540
*1450 ANTENNA_541
*1451 ANTENNA_542
*1452 ANTENNA_543
*1453 ANTENNA_544
*1454 ANTENNA_545
*1455 ANTENNA_546
*1456 ANTENNA_547
*1457 ANTENNA_548
*1458 ANTENNA_549
*1459 ANTENNA_55
*1460 ANTENNA_550
*1461 ANTENNA_551
*1462 ANTENNA_552
*1463 ANTENNA_553
*1464 ANTENNA_554
*1465 ANTENNA_555
*1466 ANTENNA_556
*1467 ANTENNA_557
*1468 ANTENNA_558
*1469 ANTENNA_559
*1470 ANTENNA_56
*1471 ANTENNA_560
*1472 ANTENNA_561
*1473 ANTENNA_562
*1474 ANTENNA_563
*1475 ANTENNA_564
*1476 ANTENNA_565
*1477 ANTENNA_566
*1478 ANTENNA_567
*1479 ANTENNA_568
*1480 ANTENNA_569
*1481 ANTENNA_57
*1482 ANTENNA_570
*1483 ANTENNA_571
*1484 ANTENNA_572
*1485 ANTENNA_573
*1486 ANTENNA_574
*1487 ANTENNA_575
*1488 ANTENNA_576
*1489 ANTENNA_577
*1490 ANTENNA_578
*1491 ANTENNA_579
*1492 ANTENNA_58
*1493 ANTENNA_580
*1494 ANTENNA_581
*1495 ANTENNA_582
*1496 ANTENNA_583
*1497 ANTENNA_584
*1498 ANTENNA_585
*1499 ANTENNA_586
*1500 ANTENNA_587
*1501 ANTENNA_588
*1502 ANTENNA_589
*1503 ANTENNA_59
*1504 ANTENNA_590
*1505 ANTENNA_591
*1506 ANTENNA_592
*1507 ANTENNA_593
*1508 ANTENNA_594
*1509 ANTENNA_595
*1510 ANTENNA_596
*1511 ANTENNA_597
*1512 ANTENNA_598
*1513 ANTENNA_599
*1514 ANTENNA_6
*1515 ANTENNA_60
*1516 ANTENNA_600
*1517 ANTENNA_601
*1518 ANTENNA_602
*1519 ANTENNA_603
*1520 ANTENNA_604
*1521 ANTENNA_605
*1522 ANTENNA_606
*1523 ANTENNA_607
*1524 ANTENNA_608
*1525 ANTENNA_609
*1526 ANTENNA_61
*1527 ANTENNA_610
*1528 ANTENNA_611
*1529 ANTENNA_612
*1530 ANTENNA_613
*1531 ANTENNA_614
*1532 ANTENNA_615
*1533 ANTENNA_616
*1534 ANTENNA_617
*1535 ANTENNA_618
*1536 ANTENNA_619
*1537 ANTENNA_62
*1538 ANTENNA_620
*1539 ANTENNA_621
*1540 ANTENNA_622
*1541 ANTENNA_623
*1542 ANTENNA_624
*1543 ANTENNA_625
*1544 ANTENNA_626
*1545 ANTENNA_627
*1546 ANTENNA_628
*1547 ANTENNA_629
*1548 ANTENNA_63
*1549 ANTENNA_630
*1550 ANTENNA_631
*1551 ANTENNA_632
*1552 ANTENNA_633
*1553 ANTENNA_634
*1554 ANTENNA_635
*1555 ANTENNA_636
*1556 ANTENNA_637
*1557 ANTENNA_638
*1558 ANTENNA_639
*1559 ANTENNA_64
*1560 ANTENNA_640
*1561 ANTENNA_641
*1562 ANTENNA_642
*1563 ANTENNA_643
*1564 ANTENNA_644
*1565 ANTENNA_645
*1566 ANTENNA_646
*1567 ANTENNA_647
*1568 ANTENNA_648
*1569 ANTENNA_649
*1570 ANTENNA_65
*1571 ANTENNA_650
*1572 ANTENNA_651
*1573 ANTENNA_652
*1574 ANTENNA_653
*1575 ANTENNA_654
*1576 ANTENNA_655
*1577 ANTENNA_656
*1578 ANTENNA_657
*1579 ANTENNA_658
*1580 ANTENNA_659
*1581 ANTENNA_66
*1582 ANTENNA_660
*1583 ANTENNA_661
*1584 ANTENNA_662
*1585 ANTENNA_663
*1586 ANTENNA_664
*1587 ANTENNA_665
*1588 ANTENNA_666
*1589 ANTENNA_667
*1590 ANTENNA_668
*1591 ANTENNA_669
*1592 ANTENNA_67
*1593 ANTENNA_670
*1594 ANTENNA_671
*1595 ANTENNA_672
*1596 ANTENNA_673
*1597 ANTENNA_674
*1598 ANTENNA_675
*1599 ANTENNA_676
*1600 ANTENNA_677
*1601 ANTENNA_678
*1602 ANTENNA_679
*1603 ANTENNA_68
*1604 ANTENNA_680
*1605 ANTENNA_681
*1606 ANTENNA_682
*1607 ANTENNA_683
*1608 ANTENNA_684
*1609 ANTENNA_685
*1610 ANTENNA_686
*1611 ANTENNA_687
*1612 ANTENNA_688
*1613 ANTENNA_689
*1614 ANTENNA_69
*1615 ANTENNA_690
*1616 ANTENNA_691
*1617 ANTENNA_692
*1618 ANTENNA_693
*1619 ANTENNA_694
*1620 ANTENNA_695
*1621 ANTENNA_696
*1622 ANTENNA_697
*1623 ANTENNA_698
*1624 ANTENNA_699
*1625 ANTENNA_7
*1626 ANTENNA_70
*1627 ANTENNA_700
*1628 ANTENNA_701
*1629 ANTENNA_702
*1630 ANTENNA_703
*1631 ANTENNA_704
*1632 ANTENNA_705
*1633 ANTENNA_706
*1634 ANTENNA_707
*1635 ANTENNA_708
*1636 ANTENNA_709
*1637 ANTENNA_71
*1638 ANTENNA_710
*1639 ANTENNA_711
*1640 ANTENNA_712
*1641 ANTENNA_713
*1642 ANTENNA_714
*1643 ANTENNA_715
*1644 ANTENNA_716
*1645 ANTENNA_717
*1646 ANTENNA_718
*1647 ANTENNA_719
*1648 ANTENNA_72
*1649 ANTENNA_720
*1650 ANTENNA_721
*1651 ANTENNA_722
*1652 ANTENNA_723
*1653 ANTENNA_724
*1654 ANTENNA_725
*1655 ANTENNA_726
*1656 ANTENNA_727
*1657 ANTENNA_728
*1658 ANTENNA_729
*1659 ANTENNA_73
*1660 ANTENNA_730
*1661 ANTENNA_731
*1662 ANTENNA_732
*1663 ANTENNA_733
*1664 ANTENNA_734
*1665 ANTENNA_735
*1666 ANTENNA_736
*1667 ANTENNA_737
*1668 ANTENNA_738
*1669 ANTENNA_739
*1670 ANTENNA_74
*1671 ANTENNA_740
*1672 ANTENNA_741
*1673 ANTENNA_75
*1674 ANTENNA_76
*1675 ANTENNA_77
*1676 ANTENNA_78
*1677 ANTENNA_79
*1678 ANTENNA_8
*1679 ANTENNA_80
*1680 ANTENNA_81
*1681 ANTENNA_82
*1682 ANTENNA_83
*1683 ANTENNA_84
*1684 ANTENNA_85
*1685 ANTENNA_86
*1686 ANTENNA_87
*1687 ANTENNA_88
*1688 ANTENNA_89
*1689 ANTENNA_9
*1690 ANTENNA_90
*1691 ANTENNA_91
*1692 ANTENNA_92
*1693 ANTENNA_93
*1694 ANTENNA_94
*1695 ANTENNA_95
*1696 ANTENNA_96
*1697 ANTENNA_97
*1698 ANTENNA_98
*1699 ANTENNA_99
*1700 FILLER_0_0_1005
*1701 FILLER_0_0_1009
*1702 FILLER_0_0_1021
*1703 FILLER_0_0_1033
*1704 FILLER_0_0_1037
*1705 FILLER_0_0_1049
*1706 FILLER_0_0_1057
*1707 FILLER_0_0_109
*1708 FILLER_0_0_113
*1709 FILLER_0_0_125
*1710 FILLER_0_0_137
*1711 FILLER_0_0_141
*1712 FILLER_0_0_15
*1713 FILLER_0_0_153
*1714 FILLER_0_0_165
*1715 FILLER_0_0_169
*1716 FILLER_0_0_181
*1717 FILLER_0_0_193
*1718 FILLER_0_0_197
*1719 FILLER_0_0_209
*1720 FILLER_0_0_221
*1721 FILLER_0_0_225
*1722 FILLER_0_0_237
*1723 FILLER_0_0_249
*1724 FILLER_0_0_253
*1725 FILLER_0_0_265
*1726 FILLER_0_0_27
*1727 FILLER_0_0_277
*1728 FILLER_0_0_281
*1729 FILLER_0_0_29
*1730 FILLER_0_0_293
*1731 FILLER_0_0_3
*1732 FILLER_0_0_305
*1733 FILLER_0_0_309
*1734 FILLER_0_0_321
*1735 FILLER_0_0_333
*1736 FILLER_0_0_337
*1737 FILLER_0_0_349
*1738 FILLER_0_0_361
*1739 FILLER_0_0_365
*1740 FILLER_0_0_377
*1741 FILLER_0_0_389
*1742 FILLER_0_0_393
*1743 FILLER_0_0_405
*1744 FILLER_0_0_41
*1745 FILLER_0_0_417
*1746 FILLER_0_0_421
*1747 FILLER_0_0_433
*1748 FILLER_0_0_445
*1749 FILLER_0_0_449
*1750 FILLER_0_0_461
*1751 FILLER_0_0_473
*1752 FILLER_0_0_477
*1753 FILLER_0_0_489
*1754 FILLER_0_0_501
*1755 FILLER_0_0_505
*1756 FILLER_0_0_517
*1757 FILLER_0_0_529
*1758 FILLER_0_0_53
*1759 FILLER_0_0_550
*1760 FILLER_0_0_554
*1761 FILLER_0_0_561
*1762 FILLER_0_0_57
*1763 FILLER_0_0_573
*1764 FILLER_0_0_585
*1765 FILLER_0_0_589
*1766 FILLER_0_0_601
*1767 FILLER_0_0_612
*1768 FILLER_0_0_617
*1769 FILLER_0_0_629
*1770 FILLER_0_0_641
*1771 FILLER_0_0_645
*1772 FILLER_0_0_657
*1773 FILLER_0_0_669
*1774 FILLER_0_0_673
*1775 FILLER_0_0_685
*1776 FILLER_0_0_69
*1777 FILLER_0_0_697
*1778 FILLER_0_0_701