*SPEF "ieee 1481-1999"
*DESIGN "cpu_top"
*DATE "11:11:11 Fri 11 11, 1111"
*VENDOR "OpenRCX"
*PROGRAM "Parallel Extraction"
*VERSION "1.0"
*DESIGN_FLOW "NAME_SCOPE LOCAL" "PIN_CAP NONE"
*DIVIDER /
*DELIMITER :
*BUS_DELIMITER []
*T_UNIT 1 NS
*C_UNIT 1 PF
*R_UNIT 1 OHM
*L_UNIT 1 HENRY

*NAME_MAP
*3 clk
*4 pc_out[0]
*5 pc_out[10]
*6 pc_out[11]
*7 pc_out[12]
*8 pc_out[13]
*9 pc_out[14]
*10 pc_out[15]
*11 pc_out[1]
*12 pc_out[2]
*13 pc_out[3]
*14 pc_out[4]
*15 pc_out[5]
*16 pc_out[6]
*17 pc_out[7]
*18 pc_out[8]
*19 pc_out[9]
*20 result[0]
*21 result[1]
*22 result[2]
*23 result[3]
*24 result[4]
*25 result[5]
*26 result[6]
*27 result[7]
*28 rst
*29 _000_
*30 _001_
*31 _002_
*32 _003_
*33 _004_
*34 _005_
*35 _006_
*36 _007_
*37 _008_
*38 _009_
*39 _010_
*40 _011_
*41 _012_
*42 _013_
*43 _014_
*44 _015_
*45 _016_
*46 _017_
*47 _018_
*48 _019_
*49 _020_
*50 _021_
*51 _022_
*52 _023_
*53 _024_
*54 _025_
*55 _026_
*56 _027_
*57 _028_
*58 _029_
*59 _030_
*60 _031_
*61 _032_
*62 _033_
*63 _034_
*64 _035_
*65 _036_
*66 _037_
*67 _038_
*68 _039_
*69 _040_
*70 _041_
*71 _042_
*72 _043_
*73 _044_
*74 _045_
*75 _046_
*76 _047_
*77 clknet_0_clk
*78 clknet_1_0__leaf_clk
*79 clknet_1_1__leaf_clk
*80 FILLER_0_0_1005
*81 FILLER_0_0_1009
*82 FILLER_0_0_1021
*83 FILLER_0_0_1033
*84 FILLER_0_0_1037
*85 FILLER_0_0_1049
*86 FILLER_0_0_1057
*87 FILLER_0_0_109
*88 FILLER_0_0_113
*89 FILLER_0_0_125
*90 FILLER_0_0_137
*91 FILLER_0_0_141
*92 FILLER_0_0_15
*93 FILLER_0_0_153
*94 FILLER_0_0_165
*95 FILLER_0_0_169
*96 FILLER_0_0_181
*97 FILLER_0_0_193
*98 FILLER_0_0_197
*99 FILLER_0_0_209
*100 FILLER_0_0_221
*101 FILLER_0_0_225
*102 FILLER_0_0_237
*103 FILLER_0_0_249
*104 FILLER_0_0_253
*105 FILLER_0_0_265
*106 FILLER_0_0_27
*107 FILLER_0_0_277
*108 FILLER_0_0_281
*109 FILLER_0_0_29
*110 FILLER_0_0_293
*111 FILLER_0_0_3
*112 FILLER_0_0_305
*113 FILLER_0_0_309
*114 FILLER_0_0_321
*115 FILLER_0_0_333
*116 FILLER_0_0_337
*117 FILLER_0_0_349
*118 FILLER_0_0_361
*119 FILLER_0_0_365
*120 FILLER_0_0_377
*121 FILLER_0_0_389
*122 FILLER_0_0_393
*123 FILLER_0_0_405
*124 FILLER_0_0_41
*125 FILLER_0_0_417
*126 FILLER_0_0_421
*127 FILLER_0_0_433
*128 FILLER_0_0_445
*129 FILLER_0_0_449
*130 FILLER_0_0_461
*131 FILLER_0_0_473
*132 FILLER_0_0_477
*133 FILLER_0_0_489
*134 FILLER_0_0_501
*135 FILLER_0_0_505
*136 FILLER_0_0_517
*137 FILLER_0_0_529
*138 FILLER_0_0_53
*139 FILLER_0_0_533
*140 FILLER_0_0_545
*141 FILLER_0_0_557
*142 FILLER_0_0_561
*143 FILLER_0_0_57
*144 FILLER_0_0_573
*145 FILLER_0_0_585
*146 FILLER_0_0_589
*147 FILLER_0_0_601
*148 FILLER_0_0_613
*149 FILLER_0_0_617
*150 FILLER_0_0_629
*151 FILLER_0_0_641
*152 FILLER_0_0_645
*153 FILLER_0_0_657
*154 FILLER_0_0_669
*155 FILLER_0_0_673
*156 FILLER_0_0_685
*157 FILLER_0_0_69
*158 FILLER_0_0_697
*159 FILLER_0_0_701
*160 FILLER_0_0_713
*161 FILLER_0_0_725
*162 FILLER_0_0_729
*163 FILLER_0_0_741
*164 FILLER_0_0_753
*165 FILLER_0_0_757
*166 FILLER_0_0_769
*167 FILLER_0_0_781
*168 FILLER_0_0_785
*169 FILLER_0_0_797
*170 FILLER_0_0_809
*171 FILLER_0_0_81
*172 FILLER_0_0_813
*173 FILLER_0_0_825
*174 FILLER_0_0_837
*175 FILLER_0_0_841
*176 FILLER_0_0_85
*177 FILLER_0_0_853
*178 FILLER_0_0_865
*179 FILLER_0_0_869
*180 FILLER_0_0_881
*181 FILLER_0_0_893
*182 FILLER_0_0_897
*183 FILLER_0_0_909
*184 FILLER_0_0_921
*185 FILLER_0_0_925
*186 FILLER_0_0_937
*187 FILLER_0_0_949
*188 FILLER_0_0_953
*189 FILLER_0_0_965
*190 FILLER_0_0_97
*191 FILLER_0_0_977
*192 FILLER_0_0_981
*193 FILLER_0_0_993
*194 FILLER_0_100_1005
*195 FILLER_0_100_1017
*196 FILLER_0_100_1029
*197 FILLER_0_100_1035
*198 FILLER_0_100_1037
*199 FILLER_0_100_1049
*200 FILLER_0_100_1057
*201 FILLER_0_100_109
*202 FILLER_0_100_121
*203 FILLER_0_100_133
*204 FILLER_0_100_139
*205 FILLER_0_100_141
*206 FILLER_0_100_15
*207 FILLER_0_100_153
*208 FILLER_0_100_165
*209 FILLER_0_100_177
*210 FILLER_0_100_189
*211 FILLER_0_100_195
*212 FILLER_0_100_197
*213 FILLER_0_100_209
*214 FILLER_0_100_221
*215 FILLER_0_100_233
*216 FILLER_0_100_245
*217 FILLER_0_100_251
*218 FILLER_0_100_253
*219 FILLER_0_100_265
*220 FILLER_0_100_27
*221 FILLER_0_100_277
*222 FILLER_0_100_289
*223 FILLER_0_100_29
*224 FILLER_0_100_3
*225 FILLER_0_100_301
*226 FILLER_0_100_307
*227 FILLER_0_100_309
*228 FILLER_0_100_321
*229 FILLER_0_100_333
*230 FILLER_0_100_345
*231 FILLER_0_100_357
*232 FILLER_0_100_363
*233 FILLER_0_100_365
*234 FILLER_0_100_377
*235 FILLER_0_100_389
*236 FILLER_0_100_401
*237 FILLER_0_100_41
*238 FILLER_0_100_413
*239 FILLER_0_100_419
*240 FILLER_0_100_421
*241 FILLER_0_100_433
*242 FILLER_0_100_445
*243 FILLER_0_100_457
*244 FILLER_0_100_469
*245 FILLER_0_100_475
*246 FILLER_0_100_477
*247 FILLER_0_100_489
*248 FILLER_0_100_501
*249 FILLER_0_100_513
*250 FILLER_0_100_525
*251 FILLER_0_100_53
*252 FILLER_0_100_531
*253 FILLER_0_100_533
*254 FILLER_0_100_545
*255 FILLER_0_100_557
*256 FILLER_0_100_569
*257 FILLER_0_100_581
*258 FILLER_0_100_587
*259 FILLER_0_100_589
*260 FILLER_0_100_601
*261 FILLER_0_100_613
*262 FILLER_0_100_625
*263 FILLER_0_100_637
*264 FILLER_0_100_643
*265 FILLER_0_100_645
*266 FILLER_0_100_65
*267 FILLER_0_100_657
*268 FILLER_0_100_669
*269 FILLER_0_100_681
*270 FILLER_0_100_693
*271 FILLER_0_100_699
*272 FILLER_0_100_701
*273 FILLER_0_100_713
*274 FILLER_0_100_725
*275 FILLER_0_100_737
*276 FILLER_0_100_749
*277 FILLER_0_100_755
*278 FILLER_0_100_757
*279 FILLER_0_100_769
*280 FILLER_0_100_77
*281 FILLER_0_100_781
*282 FILLER_0_100_793
*283 FILLER_0_100_805
*284 FILLER_0_100_811
*285 FILLER_0_100_813
*286 FILLER_0_100_825
*287 FILLER_0_100_83
*288 FILLER_0_100_837
*289 FILLER_0_100_849
*290 FILLER_0_100_85
*291 FILLER_0_100_861
*292 FILLER_0_100_867
*293 FILLER_0_100_869
*294 FILLER_0_100_881
*295 FILLER_0_100_893
*296 FILLER_0_100_905
*297 FILLER_0_100_917
*298 FILLER_0_100_923
*299 FILLER_0_100_925
*300 FILLER_0_100_937
*301 FILLER_0_100_949
*302 FILLER_0_100_961
*303 FILLER_0_100_97
*304 FILLER_0_100_973
*305 FILLER_0_100_979
*306 FILLER_0_100_981
*307 FILLER_0_100_993
*308 FILLER_0_101_1001
*309 FILLER_0_101_1007
*310 FILLER_0_101_1009
*311 FILLER_0_101_1021
*312 FILLER_0_101_1033
*313 FILLER_0_101_1045
*314 FILLER_0_101_105
*315 FILLER_0_101_1057
*316 FILLER_0_101_111
*317 FILLER_0_101_113
*318 FILLER_0_101_125
*319 FILLER_0_101_137
*320 FILLER_0_101_149
*321 FILLER_0_101_15
*322 FILLER_0_101_161
*323 FILLER_0_101_167
*324 FILLER_0_101_169
*325 FILLER_0_101_181
*326 FILLER_0_101_193
*327 FILLER_0_101_205
*328 FILLER_0_101_217
*329 FILLER_0_101_223
*330 FILLER_0_101_225
*331 FILLER_0_101_237
*332 FILLER_0_101_249
*333 FILLER_0_101_261
*334 FILLER_0_101_27
*335 FILLER_0_101_273
*336 FILLER_0_101_279
*337 FILLER_0_101_281
*338 FILLER_0_101_293
*339 FILLER_0_101_3
*340 FILLER_0_101_305
*341 FILLER_0_101_317
*342 FILLER_0_101_329
*343 FILLER_0_101_335
*344 FILLER_0_101_337
*345 FILLER_0_101_349
*346 FILLER_0_101_361
*347 FILLER_0_101_373
*348 FILLER_0_101_385
*349 FILLER_0_101_39
*350 FILLER_0_101_391
*351 FILLER_0_101_410
*352 FILLER_0_101_422
*353 FILLER_0_101_434
*354 FILLER_0_101_446
*355 FILLER_0_101_449
*356 FILLER_0_101_461
*357 FILLER_0_101_473
*358 FILLER_0_101_485
*359 FILLER_0_101_497
*360 FILLER_0_101_503
*361 FILLER_0_101_505
*362 FILLER_0_101_51
*363 FILLER_0_101_517
*364 FILLER_0_101_529
*365 FILLER_0_101_541
*366 FILLER_0_101_55
*367 FILLER_0_101_553
*368 FILLER_0_101_559
*369 FILLER_0_101_561
*370 FILLER_0_101_57
*371 FILLER_0_101_573
*372 FILLER_0_101_585
*373 FILLER_0_101_597
*374 FILLER_0_101_609
*375 FILLER_0_101_615
*376 FILLER_0_101_617
*377 FILLER_0_101_629
*378 FILLER_0_101_641
*379 FILLER_0_101_653
*380 FILLER_0_101_665
*381 FILLER_0_101_671
*382 FILLER_0_101_673
*383 FILLER_0_101_685
*384 FILLER_0_101_69
*385 FILLER_0_101_697
*386 FILLER_0_101_709
*387 FILLER_0_101_721
*388 FILLER_0_101_727
*389 FILLER_0_101_729
*390 FILLER_0_101_741
*391 FILLER_0_101_753
*392 FILLER_0_101_765
*393 FILLER_0_101_777
*394 FILLER_0_101_783
*395 FILLER_0_101_785
*396 FILLER_0_101_797
*397 FILLER_0_101_809
*398 FILLER_0_101_81
*399 FILLER_0_101_821
*400 FILLER_0_101_833
*401 FILLER_0_101_839
*402 FILLER_0_101_841
*403 FILLER_0_101_853
*404 FILLER_0_101_865
*405 FILLER_0_101_877
*406 FILLER_0_101_889
*407 FILLER_0_101_895
*408 FILLER_0_101_897
*409 FILLER_0_101_909
*410 FILLER_0_101_921
*411 FILLER_0_101_93
*412 FILLER_0_101_933
*413 FILLER_0_101_945
*414 FILLER_0_101_951
*415 FILLER_0_101_953
*416 FILLER_0_101_965
*417 FILLER_0_101_977
*418 FILLER_0_101_989
*419 FILLER_0_102_1005
*420 FILLER_0_102_1017
*421 FILLER_0_102_1029
*422 FILLER_0_102_1035
*423 FILLER_0_102_1037
*424 FILLER_0_102_1049
*425 FILLER_0_102_1057
*426 FILLER_0_102_109
*427 FILLER_0_102_121
*428 FILLER_0_102_133
*429 FILLER_0_102_139
*430 FILLER_0_102_141
*431 FILLER_0_102_15
*432 FILLER_0_102_153
*433 FILLER_0_102_165
*434 FILLER_0_102_177
*435 FILLER_0_102_189
*436 FILLER_0_102_195
*437 FILLER_0_102_197
*438 FILLER_0_102_209
*439 FILLER_0_102_221
*440 FILLER_0_102_233
*441 FILLER_0_102_245
*442 FILLER_0_102_251
*443 FILLER_0_102_253
*444 FILLER_0_102_265
*445 FILLER_0_102_27
*446 FILLER_0_102_277
*447 FILLER_0_102_289
*448 FILLER_0_102_29
*449 FILLER_0_102_3
*450 FILLER_0_102_301
*451 FILLER_0_102_307
*452 FILLER_0_102_309
*453 FILLER_0_102_321
*454 FILLER_0_102_333
*455 FILLER_0_102_345
*456 FILLER_0_102_357
*457 FILLER_0_102_363
*458 FILLER_0_102_365
*459 FILLER_0_102_377
*460 FILLER_0_102_389
*461 FILLER_0_102_401
*462 FILLER_0_102_41
*463 FILLER_0_102_413
*464 FILLER_0_102_419
*465 FILLER_0_102_421
*466 FILLER_0_102_433
*467 FILLER_0_102_445
*468 FILLER_0_102_457
*469 FILLER_0_102_469
*470 FILLER_0_102_475
*471 FILLER_0_102_477
*472 FILLER_0_102_489
*473 FILLER_0_102_501
*474 FILLER_0_102_513
*475 FILLER_0_102_525
*476 FILLER_0_102_53
*477 FILLER_0_102_531
*478 FILLER_0_102_533
*479 FILLER_0_102_545
*480 FILLER_0_102_557
*481 FILLER_0_102_569
*482 FILLER_0_102_581
*483 FILLER_0_102_587
*484 FILLER_0_102_589
*485 FILLER_0_102_601
*486 FILLER_0_102_613
*487 FILLER_0_102_625
*488 FILLER_0_102_637
*489 FILLER_0_102_643
*490 FILLER_0_102_645
*491 FILLER_0_102_65
*492 FILLER_0_102_657
*493 FILLER_0_102_669
*494 FILLER_0_102_681
*495 FILLER_0_102_693
*496 FILLER_0_102_699
*497 FILLER_0_102_701
*498 FILLER_0_102_713
*499 FILLER_0_102_725
*500 FILLER_0_102_737
*501 FILLER_0_102_749
*502 FILLER_0_102_755
*503 FILLER_0_102_757
*504 FILLER_0_102_769
*505 FILLER_0_102_77
*506 FILLER_0_102_781
*507 FILLER_0_102_793
*508 FILLER_0_102_805
*509 FILLER_0_102_811
*510 FILLER_0_102_813
*511 FILLER_0_102_825
*512 FILLER_0_102_83
*513 FILLER_0_102_837
*514 FILLER_0_102_849
*515 FILLER_0_102_85
*516 FILLER_0_102_861
*517 FILLER_0_102_867
*518 FILLER_0_102_869
*519 FILLER_0_102_881
*520 FILLER_0_102_893
*521 FILLER_0_102_905
*522 FILLER_0_102_917
*523 FILLER_0_102_923
*524 FILLER_0_102_925
*525 FILLER_0_102_937
*526 FILLER_0_102_949
*527 FILLER_0_102_961
*528 FILLER_0_102_97
*529 FILLER_0_102_973
*530 FILLER_0_102_979
*531 FILLER_0_102_981
*532 FILLER_0_102_993
*533 FILLER_0_103_1001
*534 FILLER_0_103_1007
*535 FILLER_0_103_1009
*536 FILLER_0_103_1021
*537 FILLER_0_103_1033
*538 FILLER_0_103_1045
*539 FILLER_0_103_105
*540 FILLER_0_103_1057
*541 FILLER_0_103_111
*542 FILLER_0_103_113
*543 FILLER_0_103_125
*544 FILLER_0_103_137
*545 FILLER_0_103_149
*546 FILLER_0_103_15
*547 FILLER_0_103_161
*548 FILLER_0_103_167
*549 FILLER_0_103_169
*550 FILLER_0_103_181
*551 FILLER_0_103_193
*552 FILLER_0_103_205
*553 FILLER_0_103_217
*554 FILLER_0_103_223
*555 FILLER_0_103_225
*556 FILLER_0_103_237
*557 FILLER_0_103_249
*558 FILLER_0_103_261
*559 FILLER_0_103_27
*560 FILLER_0_103_273
*561 FILLER_0_103_279
*562 FILLER_0_103_281
*563 FILLER_0_103_293
*564 FILLER_0_103_3
*565 FILLER_0_103_305
*566 FILLER_0_103_317
*567 FILLER_0_103_329
*568 FILLER_0_103_335
*569 FILLER_0_103_337
*570 FILLER_0_103_349
*571 FILLER_0_103_361
*572 FILLER_0_103_373
*573 FILLER_0_103_385
*574 FILLER_0_103_39
*575 FILLER_0_103_391
*576 FILLER_0_103_393
*577 FILLER_0_103_405
*578 FILLER_0_103_417
*579 FILLER_0_103_429
*580 FILLER_0_103_441
*581 FILLER_0_103_447
*582 FILLER_0_103_449
*583 FILLER_0_103_461
*584 FILLER_0_103_473
*585 FILLER_0_103_485
*586 FILLER_0_103_497
*587 FILLER_0_103_503
*588 FILLER_0_103_505
*589 FILLER_0_103_51
*590 FILLER_0_103_517
*591 FILLER_0_103_529
*592 FILLER_0_103_541
*593 FILLER_0_103_55
*594 FILLER_0_103_553
*595 FILLER_0_103_559
*596 FILLER_0_103_561
*597 FILLER_0_103_57
*598 FILLER_0_103_573
*599 FILLER_0_103_585
*600 FILLER_0_103_597
*601 FILLER_0_103_609
*602 FILLER_0_103_615
*603 FILLER_0_103_617
*604 FILLER_0_103_629
*605 FILLER_0_103_641
*606 FILLER_0_103_653
*607 FILLER_0_103_665
*608 FILLER_0_103_671
*609 FILLER_0_103_673
*610 FILLER_0_103_685
*611 FILLER_0_103_69
*612 FILLER_0_103_697
*613 FILLER_0_103_709
*614 FILLER_0_103_721
*615 FILLER_0_103_727
*616 FILLER_0_103_729
*617 FILLER_0_103_741
*618 FILLER_0_103_753
*619 FILLER_0_103_765
*620 FILLER_0_103_777
*621 FILLER_0_103_783
*622 FILLER_0_103_785
*623 FILLER_0_103_797
*624 FILLER_0_103_809
*625 FILLER_0_103_81
*626 FILLER_0_103_821
*627 FILLER_0_103_833
*628 FILLER_0_103_839
*629 FILLER_0_103_841
*630 FILLER_0_103_853
*631 FILLER_0_103_865
*632 FILLER_0_103_877
*633 FILLER_0_103_889
*634 FILLER_0_103_895
*635 FILLER_0_103_897
*636 FILLER_0_103_909
*637 FILLER_0_103_921
*638 FILLER_0_103_93
*639 FILLER_0_103_933
*640 FILLER_0_103_945
*641 FILLER_0_103_951
*642 FILLER_0_103_953
*643 FILLER_0_103_965
*644 FILLER_0_103_977
*645 FILLER_0_103_989
*646 FILLER_0_104_1005
*647 FILLER_0_104_1017
*648 FILLER_0_104_1029
*649 FILLER_0_104_1035
*650 FILLER_0_104_1037
*651 FILLER_0_104_1049
*652 FILLER_0_104_1057
*653 FILLER_0_104_109
*654 FILLER_0_104_121
*655 FILLER_0_104_133
*656 FILLER_0_104_139
*657 FILLER_0_104_141
*658 FILLER_0_104_15
*659 FILLER_0_104_153
*660 FILLER_0_104_165
*661 FILLER_0_104_177
*662 FILLER_0_104_189
*663 FILLER_0_104_195
*664 FILLER_0_104_197
*665 FILLER_0_104_209
*666 FILLER_0_104_221
*667 FILLER_0_104_233
*668 FILLER_0_104_245
*669 FILLER_0_104_251
*670 FILLER_0_104_253
*671 FILLER_0_104_265
*672 FILLER_0_104_27
*673 FILLER_0_104_277
*674 FILLER_0_104_289
*675 FILLER_0_104_29
*676 FILLER_0_104_3
*677 FILLER_0_104_301
*678 FILLER_0_104_307
*679 FILLER_0_104_309
*680 FILLER_0_104_321
*681 FILLER_0_104_333
*682 FILLER_0_104_345
*683 FILLER_0_104_357
*684 FILLER_0_104_363
*685 FILLER_0_104_365
*686 FILLER_0_104_369
*687 FILLER_0_104_377
*688 FILLER_0_104_389
*689 FILLER_0_104_401
*690 FILLER_0_104_41
*691 FILLER_0_104_413
*692 FILLER_0_104_419
*693 FILLER_0_104_421
*694 FILLER_0_104_433
*695 FILLER_0_104_445
*696 FILLER_0_104_457
*697 FILLER_0_104_469
*698 FILLER_0_104_475
*699 FILLER_0_104_477
*700 FILLER_0_104_489
*701 FILLER_0_104_501
*702 FILLER_0_104_513
*703 FILLER_0_104_525
*704 FILLER_0_104_53
*705 FILLER_0_104_531
*706 FILLER_0_104_533
*707 FILLER_0_104_545
*708 FILLER_0_104_557
*709 FILLER_0_104_569
*710 FILLER_0_104_581
*711 FILLER_0_104_587
*712 FILLER_0_104_589
*713 FILLER_0_104_601
*714 FILLER_0_104_613
*715 FILLER_0_104_625
*716 FILLER_0_104_637
*717 FILLER_0_104_643
*718 FILLER_0_104_645
*719 FILLER_0_104_65
*720 FILLER_0_104_657
*721 FILLER_0_104_669
*722 FILLER_0_104_681
*723 FILLER_0_104_693
*724 FILLER_0_104_699
*725 FILLER_0_104_701
*726 FILLER_0_104_713
*727 FILLER_0_104_725
*728 FILLER_0_104_737
*729 FILLER_0_104_749
*730 FILLER_0_104_755
*731 FILLER_0_104_757
*732 FILLER_0_104_769
*733 FILLER_0_104_77
*734 FILLER_0_104_781
*735 FILLER_0_104_793
*736 FILLER_0_104_805
*737 FILLER_0_104_811
*738 FILLER_0_104_813
*739 FILLER_0_104_825
*740 FILLER_0_104_83
*741 FILLER_0_104_837
*742 FILLER_0_104_849
*743 FILLER_0_104_85
*744 FILLER_0_104_861
*745 FILLER_0_104_867
*746 FILLER_0_104_869
*747 FILLER_0_104_881
*748 FILLER_0_104_893
*749 FILLER_0_104_905
*750 FILLER_0_104_917
*751 FILLER_0_104_923
*752 FILLER_0_104_925
*753 FILLER_0_104_937
*754 FILLER_0_104_949
*755 FILLER_0_104_961
*756 FILLER_0_104_97
*757 FILLER_0_104_973
*758 FILLER_0_104_979
*759 FILLER_0_104_981
*760 FILLER_0_104_993
*761 FILLER_0_105_1001
*762 FILLER_0_105_1007
*763 FILLER_0_105_1009
*764 FILLER_0_105_1021
*765 FILLER_0_105_1033
*766 FILLER_0_105_1045
*767 FILLER_0_105_105
*768 FILLER_0_105_1057
*769 FILLER_0_105_111
*770 FILLER_0_105_113
*771 FILLER_0_105_125
*772 FILLER_0_105_137
*773 FILLER_0_105_149
*774 FILLER_0_105_15
*775 FILLER_0_105_161
*776 FILLER_0_105_167
*777 FILLER_0_105_169
*778 FILLER_0_105_181
*779 FILLER_0_105_193
*780 FILLER_0_105_205
*781 FILLER_0_105_217
*782 FILLER_0_105_223
*783 FILLER_0_105_225
*784 FILLER_0_105_237
*785 FILLER_0_105_249
*786 FILLER_0_105_261
*787 FILLER_0_105_27
*788 FILLER_0_105_273
*789 FILLER_0_105_279
*790 FILLER_0_105_281
*791 FILLER_0_105_293
*792 FILLER_0_105_3
*793 FILLER_0_105_305
*794 FILLER_0_105_317
*795 FILLER_0_105_329
*796 FILLER_0_105_335
*797 FILLER_0_105_337
*798 FILLER_0_105_349
*799 FILLER_0_105_361
*800 FILLER_0_105_373
*801 FILLER_0_105_385
*802 FILLER_0_105_39
*803 FILLER_0_105_391
*804 FILLER_0_105_393
*805 FILLER_0_105_405
*806 FILLER_0_105_417
*807 FILLER_0_105_429
*808 FILLER_0_105_441
*809 FILLER_0_105_447
*810 FILLER_0_105_449
*811 FILLER_0_105_461
*812 FILLER_0_105_473
*813 FILLER_0_105_485
*814 FILLER_0_105_497
*815 FILLER_0_105_503
*816 FILLER_0_105_505
*817 FILLER_0_105_51
*818 FILLER_0_105_517
*819 FILLER_0_105_529
*820 FILLER_0_105_541
*821 FILLER_0_105_55
*822 FILLER_0_105_553
*823 FILLER_0_105_559
*824 FILLER_0_105_561
*825 FILLER_0_105_57
*826 FILLER_0_105_573
*827 FILLER_0_105_585
*828 FILLER_0_105_597
*829 FILLER_0_105_609
*830 FILLER_0_105_615
*831 FILLER_0_105_617
*832 FILLER_0_105_629
*833 FILLER_0_105_641
*834 FILLER_0_105_653
*835 FILLER_0_105_665
*836 FILLER_0_105_671
*837 FILLER_0_105_673
*838 FILLER_0_105_685
*839 FILLER_0_105_69
*840 FILLER_0_105_697
*841 FILLER_0_105_709
*842 FILLER_0_105_721
*843 FILLER_0_105_727
*844 FILLER_0_105_729
*845 FILLER_0_105_741
*846 FILLER_0_105_753
*847 FILLER_0_105_765
*848 FILLER_0_105_777
*849 FILLER_0_105_783
*850 FILLER_0_105_785
*851 FILLER_0_105_797
*852 FILLER_0_105_809
*853 FILLER_0_105_81
*854 FILLER_0_105_821
*855 FILLER_0_105_833
*856 FILLER_0_105_839
*857 FILLER_0_105_841
*858 FILLER_0_105_853
*859 FILLER_0_105_865
*860 FILLER_0_105_877
*861 FILLER_0_105_889
*862 FILLER_0_105_895
*863 FILLER_0_105_897
*864 FILLER_0_105_909
*865 FILLER_0_105_921
*866 FILLER_0_105_93
*867 FILLER_0_105_933
*868 FILLER_0_105_945
*869 FILLER_0_105_951
*870 FILLER_0_105_953
*871 FILLER_0_105_965
*872 FILLER_0_105_977
*873 FILLER_0_105_989
*874 FILLER_0_106_1005
*875 FILLER_0_106_1017
*876 FILLER_0_106_1025
*877 FILLER_0_106_1034
*878 FILLER_0_106_1037
*879 FILLER_0_106_1049
*880 FILLER_0_106_1057
*881 FILLER_0_106_109
*882 FILLER_0_106_121
*883 FILLER_0_106_133
*884 FILLER_0_106_139
*885 FILLER_0_106_141
*886 FILLER_0_106_15
*887 FILLER_0_106_153
*888 FILLER_0_106_165
*889 FILLER_0_106_177
*890 FILLER_0_106_189
*891 FILLER_0_106_195
*892 FILLER_0_106_197
*893 FILLER_0_106_209
*894 FILLER_0_106_221
*895 FILLER_0_106_233
*896 FILLER_0_106_245
*897 FILLER_0_106_251
*898 FILLER_0_106_253
*899 FILLER_0_106_265
*900 FILLER_0_106_27
*901 FILLER_0_106_277
*902 FILLER_0_106_289
*903 FILLER_0_106_29
*904 FILLER_0_106_3
*905 FILLER_0_106_301
*906 FILLER_0_106_307
*907 FILLER_0_106_309
*908 FILLER_0_106_321
*909 FILLER_0_106_333
*910 FILLER_0_106_345
*911 FILLER_0_106_357
*912 FILLER_0_106_363
*913 FILLER_0_106_365
*914 FILLER_0_106_377
*915 FILLER_0_106_389
*916 FILLER_0_106_401
*917 FILLER_0_106_41
*918 FILLER_0_106_413
*919 FILLER_0_106_419
*920 FILLER_0_106_421
*921 FILLER_0_106_433
*922 FILLER_0_106_445
*923 FILLER_0_106_457
*924 FILLER_0_106_469
*925 FILLER_0_106_475
*926 FILLER_0_106_477
*927 FILLER_0_106_489
*928 FILLER_0_106_501
*929 FILLER_0_106_513
*930 FILLER_0_106_525
*931 FILLER_0_106_53
*932 FILLER_0_106_531
*933 FILLER_0_106_533
*934 FILLER_0_106_545
*935 FILLER_0_106_557
*936 FILLER_0_106_569
*937 FILLER_0_106_581
*938 FILLER_0_106_587
*939 FILLER_0_106_589
*940 FILLER_0_106_601
*941 FILLER_0_106_613
*942 FILLER_0_106_625
*943 FILLER_0_106_637
*944 FILLER_0_106_643
*945 FILLER_0_106_645
*946 FILLER_0_106_65
*947 FILLER_0_106_657
*948 FILLER_0_106_669
*949 FILLER_0_106_681
*950 FILLER_0_106_693
*951 FILLER_0_106_699
*952 FILLER_0_106_701
*953 FILLER_0_106_713
*954 FILLER_0_106_725
*955 FILLER_0_106_737
*956 FILLER_0_106_749
*957 FILLER_0_106_755
*958 FILLER_0_106_757
*959 FILLER_0_106_769
*960 FILLER_0_106_77
*961 FILLER_0_106_781
*962 FILLER_0_106_793
*963 FILLER_0_106_805
*964 FILLER_0_106_811
*965 FILLER_0_106_813
*966 FILLER_0_106_825
*967 FILLER_0_106_83
*968 FILLER_0_106_837
*969 FILLER_0_106_849
*970 FILLER_0_106_85
*971 FILLER_0_106_861
*972 FILLER_0_106_867
*973 FILLER_0_106_869
*974 FILLER_0_106_881
*975 FILLER_0_106_893
*976 FILLER_0_106_905
*977 FILLER_0_106_917
*978 FILLER_0_106_923
*979 FILLER_0_106_925
*980 FILLER_0_106_937
*981 FILLER_0_106_949
*982 FILLER_0_106_961
*983 FILLER_0_106_97
*984 FILLER_0_106_973
*985 FILLER_0_106_979
*986 FILLER_0_106_981
*987 FILLER_0_106_993
*988 FILLER_0_107_1001
*989 FILLER_0_107_1007
*990 FILLER_0_107_1009
*991 FILLER_0_107_1021
*992 FILLER_0_107_1033
*993 FILLER_0_107_1045
*994 FILLER_0_107_105
*995 FILLER_0_107_1057
*996 FILLER_0_107_111
*997 FILLER_0_107_113
*998 FILLER_0_107_125
*999 FILLER_0_107_137
*1000 FILLER_0_107_149
*1001 FILLER_0_107_15
*1002 FILLER_0_107_161
*1003 FILLER_0_107_167
*1004 FILLER_0_107_169
*1005 FILLER_0_107_181
*1006 FILLER_0_107_193
*1007 FILLER_0_107_205
*1008 FILLER_0_107_217
*1009 FILLER_0_107_223
*1010 FILLER_0_107_225
*1011 FILLER_0_107_237
*1012 FILLER_0_107_249
*1013 FILLER_0_107_261
*1014 FILLER_0_107_27
*1015 FILLER_0_107_273
*1016 FILLER_0_107_279
*1017 FILLER_0_107_281
*1018 FILLER_0_107_293
*1019 FILLER_0_107_3
*1020 FILLER_0_107_305
*1021 FILLER_0_107_317
*1022 FILLER_0_107_329
*1023 FILLER_0_107_335
*1024 FILLER_0_107_337
*1025 FILLER_0_107_349
*1026 FILLER_0_107_361
*1027 FILLER_0_107_373
*1028 FILLER_0_107_385
*1029 FILLER_0_107_39
*1030 FILLER_0_107_391
*1031 FILLER_0_107_393
*1032 FILLER_0_107_405
*1033 FILLER_0_107_417
*1034 FILLER_0_107_429
*1035 FILLER_0_107_441
*1036 FILLER_0_107_447
*1037 FILLER_0_107_449
*1038 FILLER_0_107_461
*1039 FILLER_0_107_473
*1040 FILLER_0_107_485
*1041 FILLER_0_107_497
*1042 FILLER_0_107_503
*1043 FILLER_0_107_505
*1044 FILLER_0_107_51
*1045 FILLER_0_107_517
*1046 FILLER_0_107_529
*1047 FILLER_0_107_541
*1048 FILLER_0_107_55
*1049 FILLER_0_107_553
*1050 FILLER_0_107_559
*1051 FILLER_0_107_561
*1052 FILLER_0_107_57
*1053 FILLER_0_107_573
*1054 FILLER_0_107_585
*1055 FILLER_0_107_597
*1056 FILLER_0_107_609
*1057 FILLER_0_107_615
*1058 FILLER_0_107_617
*1059 FILLER_0_107_629
*1060 FILLER_0_107_641
*1061 FILLER_0_107_653
*1062 FILLER_0_107_665
*1063 FILLER_0_107_671
*1064 FILLER_0_107_673
*1065 FILLER_0_107_685
*1066 FILLER_0_107_69
*1067 FILLER_0_107_697
*1068 FILLER_0_107_709
*1069 FILLER_0_107_721
*1070 FILLER_0_107_727
*1071 FILLER_0_107_729
*1072 FILLER_0_107_741
*1073 FILLER_0_107_753
*1074 FILLER_0_107_765
*1075 FILLER_0_107_777
*1076 FILLER_0_107_783
*1077 FILLER_0_107_785
*1078 FILLER_0_107_797
*1079 FILLER_0_107_809
*1080 FILLER_0_107_81
*1081 FILLER_0_107_821
*1082 FILLER_0_107_833
*1083 FILLER_0_107_839
*1084 FILLER_0_107_841
*1085 FILLER_0_107_853
*1086 FILLER_0_107_865
*1087 FILLER_0_107_877
*1088 FILLER_0_107_889
*1089 FILLER_0_107_895
*1090 FILLER_0_107_897
*1091 FILLER_0_107_909
*1092 FILLER_0_107_921
*1093 FILLER_0_107_93
*1094 FILLER_0_107_933
*1095 FILLER_0_107_945
*1096 FILLER_0_107_951
*1097 FILLER_0_107_953
*1098 FILLER_0_107_965
*1099 FILLER_0_107_977
*1100 FILLER_0_107_989
*1101 FILLER_0_108_1005
*1102 FILLER_0_108_1017
*1103 FILLER_0_108_1029
*1104 FILLER_0_108_1035
*1105 FILLER_0_108_1037
*1106 FILLER_0_108_1049
*1107 FILLER_0_108_1057
*1108 FILLER_0_108_109
*1109 FILLER_0_108_121
*1110 FILLER_0_108_133
*1111 FILLER_0_108_139
*1112 FILLER_0_108_141
*1113 FILLER_0_108_15
*1114 FILLER_0_108_153
*1115 FILLER_0_108_165
*1116 FILLER_0_108_177
*1117 FILLER_0_108_189
*1118 FILLER_0_108_195
*1119 FILLER_0_108_197
*1120 FILLER_0_108_209
*1121 FILLER_0_108_221
*1122 FILLER_0_108_233
*1123 FILLER_0_108_245
*1124 FILLER_0_108_251
*1125 FILLER_0_108_253
*1126 FILLER_0_108_265
*1127 FILLER_0_108_27
*1128 FILLER_0_108_277
*1129 FILLER_0_108_289
*1130 FILLER_0_108_29
*1131 FILLER_0_108_3
*1132 FILLER_0_108_301
*1133 FILLER_0_108_307
*1134 FILLER_0_108_309
*1135 FILLER_0_108_321
*1136 FILLER_0_108_333
*1137 FILLER_0_108_345
*1138 FILLER_0_108_357
*1139 FILLER_0_108_363
*1140 FILLER_0_108_365
*1141 FILLER_0_108_377
*1142 FILLER_0_108_389
*1143 FILLER_0_108_401
*1144 FILLER_0_108_41
*1145 FILLER_0_108_413
*1146 FILLER_0_108_419
*1147 FILLER_0_108_421
*1148 FILLER_0_108_433
*1149 FILLER_0_108_445
*1150 FILLER_0_108_457
*1151 FILLER_0_108_469
*1152 FILLER_0_108_475
*1153 FILLER_0_108_477
*1154 FILLER_0_108_489
*1155 FILLER_0_108_501
*1156 FILLER_0_108_513
*1157 FILLER_0_108_525
*1158 FILLER_0_108_53
*1159 FILLER_0_108_531
*1160 FILLER_0_108_533
*1161 FILLER_0_108_545
*1162 FILLER_0_108_557
*1163 FILLER_0_108_569
*1164 FILLER_0_108_581
*1165 FILLER_0_108_587
*1166 FILLER_0_108_589
*1167 FILLER_0_108_601
*1168 FILLER_0_108_613
*1169 FILLER_0_108_625
*1170 FILLER_0_108_637
*1171 FILLER_0_108_643
*1172 FILLER_0_108_645
*1173 FILLER_0_108_65
*1174 FILLER_0_108_657
*1175 FILLER_0_108_669
*1176 FILLER_0_108_681
*1177 FILLER_0_108_693
*1178 FILLER_0_108_699
*1179 FILLER_0_108_701
*1180 FILLER_0_108_713
*1181 FILLER_0_108_725
*1182 FILLER_0_108_737
*1183 FILLER_0_108_749
*1184 FILLER_0_108_755
*1185 FILLER_0_108_757
*1186 FILLER_0_108_769
*1187 FILLER_0_108_77
*1188 FILLER_0_108_781
*1189 FILLER_0_108_793
*1190 FILLER_0_108_805
*1191 FILLER_0_108_811
*1192 FILLER_0_108_813
*1193 FILLER_0_108_825
*1194 FILLER_0_108_83
*1195 FILLER_0_108_837
*1196 FILLER_0_108_849
*1197 FILLER_0_108_85
*1198 FILLER_0_108_861
*1199 FILLER_0_108_867
*1200 FILLER_0_108_869
*1201 FILLER_0_108_881
*1202 FILLER_0_108_893
*1203 FILLER_0_108_905
*1204 FILLER_0_108_917
*1205 FILLER_0_108_923
*1206 FILLER_0_108_925
*1207 FILLER_0_108_937
*1208 FILLER_0_108_949
*1209 FILLER_0_108_961
*1210 FILLER_0_108_97
*1211 FILLER_0_108_973
*1212 FILLER_0_108_979
*1213 FILLER_0_108_981
*1214 FILLER_0_108_993
*1215 FILLER_0_109_1001
*1216 FILLER_0_109_1007
*1217 FILLER_0_109_1009
*1218 FILLER_0_109_1021
*1219 FILLER_0_109_1033
*1220 FILLER_0_109_1045
*1221 FILLER_0_109_105
*1222 FILLER_0_109_1057
*1223 FILLER_0_109_111
*1224 FILLER_0_109_113
*1225 FILLER_0_109_125
*1226 FILLER_0_109_137
*1227 FILLER_0_109_149
*1228 FILLER_0_109_15
*1229 FILLER_0_109_161
*1230 FILLER_0_109_167
*1231 FILLER_0_109_169
*1232 FILLER_0_109_181
*1233 FILLER_0_109_193
*1234 FILLER_0_109_205
*1235 FILLER_0_109_217
*1236 FILLER_0_109_223
*1237 FILLER_0_109_225
*1238 FILLER_0_109_237
*1239 FILLER_0_109_249
*1240 FILLER_0_109_261
*1241 FILLER_0_109_27
*1242 FILLER_0_109_273
*1243 FILLER_0_109_279
*1244 FILLER_0_109_281
*1245 FILLER_0_109_293
*1246 FILLER_0_109_3
*1247 FILLER_0_109_305
*1248 FILLER_0_109_310
*1249 FILLER_0_109_322
*1250 FILLER_0_109_334
*1251 FILLER_0_109_337
*1252 FILLER_0_109_349
*1253 FILLER_0_109_361
*1254 FILLER_0_109_373
*1255 FILLER_0_109_385
*1256 FILLER_0_109_39
*1257 FILLER_0_109_391
*1258 FILLER_0_109_393
*1259 FILLER_0_109_405
*1260 FILLER_0_109_417
*1261 FILLER_0_109_429
*1262 FILLER_0_109_441
*1263 FILLER_0_109_447
*1264 FILLER_0_109_449
*1265 FILLER_0_109_461
*1266 FILLER_0_109_473
*1267 FILLER_0_109_485
*1268 FILLER_0_109_497
*1269 FILLER_0_109_503
*1270 FILLER_0_109_505
*1271 FILLER_0_109_51
*1272 FILLER_0_109_517
*1273 FILLER_0_109_529
*1274 FILLER_0_109_541
*1275 FILLER_0_109_55
*1276 FILLER_0_109_553
*1277 FILLER_0_109_559
*1278 FILLER_0_109_561
*1279 FILLER_0_109_57
*1280 FILLER_0_109_573
*1281 FILLER_0_109_585
*1282 FILLER_0_109_597
*1283 FILLER_0_109_609
*1284 FILLER_0_109_615
*1285 FILLER_0_109_617
*1286 FILLER_0_109_629
*1287 FILLER_0_109_641
*1288 FILLER_0_109_653
*1289 FILLER_0_109_665
*1290 FILLER_0_109_671
*1291 FILLER_0_109_673
*1292 FILLER_0_109_685
*1293 FILLER_0_109_69
*1294 FILLER_0_109_697
*1295 FILLER_0_109_709
*1296 FILLER_0_109_721
*1297 FILLER_0_109_727
*1298 FILLER_0_109_729
*1299 FILLER_0_109_741
*1300 FILLER_0_109_753
*1301 FILLER_0_109_765
*1302 FILLER_0_109_777
*1303 FILLER_0_109_783
*1304 FILLER_0_109_785
*1305 FILLER_0_109_797
*1306 FILLER_0_109_809
*1307 FILLER_0_109_81
*1308 FILLER_0_109_821
*1309 FILLER_0_109_833
*1310 FILLER_0_109_839
*1311 FILLER_0_109_841
*1312 FILLER_0_109_853
*1313 FILLER_0_109_865
*1314 FILLER_0_109_877
*1315 FILLER_0_109_889
*1316 FILLER_0_109_895
*1317 FILLER_0_109_897
*1318 FILLER_0_109_909
*1319 FILLER_0_109_921
*1320 FILLER_0_109_93
*1321 FILLER_0_109_933
*1322 FILLER_0_109_945
*1323 FILLER_0_109_951
*1324 FILLER_0_109_953
*1325 FILLER_0_109_965
*1326 FILLER_0_109_977
*1327 FILLER_0_109_989
*1328 FILLER_0_10_1005
*1329 FILLER_0_10_1017
*1330 FILLER_0_10_1029
*1331 FILLER_0_10_1035
*1332 FILLER_0_10_1037
*1333 FILLER_0_10_1049
*1334 FILLER_0_10_1057
*1335 FILLER_0_10_109
*1336 FILLER_0_10_121
*1337 FILLER_0_10_133
*1338 FILLER_0_10_139
*1339 FILLER_0_10_141
*1340 FILLER_0_10_15
*1341 FILLER_0_10_153
*1342 FILLER_0_10_165
*1343 FILLER_0_10_177
*1344 FILLER_0_10_189
*1345 FILLER_0_10_195
*1346 FILLER_0_10_197
*1347 FILLER_0_10_209
*1348 FILLER_0_10_221
*1349 FILLER_0_10_233
*1350 FILLER_0_10_245
*1351 FILLER_0_10_251
*1352 FILLER_0_10_253
*1353 FILLER_0_10_265
*1354 FILLER_0_10_27
*1355 FILLER_0_10_277
*1356 FILLER_0_10_289
*1357 FILLER_0_10_29
*1358 FILLER_0_10_3
*1359 FILLER_0_10_301
*1360 FILLER_0_10_307
*1361 FILLER_0_10_309
*1362 FILLER_0_10_321
*1363 FILLER_0_10_333
*1364 FILLER_0_10_345
*1365 FILLER_0_10_357
*1366 FILLER_0_10_363
*1367 FILLER_0_10_365
*1368 FILLER_0_10_377
*1369 FILLER_0_10_389
*1370 FILLER_0_10_401
*1371 FILLER_0_10_41
*1372 FILLER_0_10_413
*1373 FILLER_0_10_419
*1374 FILLER_0_10_421
*1375 FILLER_0_10_433
*1376 FILLER_0_10_445
*1377 FILLER_0_10_457
*1378 FILLER_0_10_469
*1379 FILLER_0_10_475
*1380 FILLER_0_10_477
*1381 FILLER_0_10_489
*1382 FILLER_0_10_501
*1383 FILLER_0_10_513
*1384 FILLER_0_10_525
*1385 FILLER_0_10_53
*1386 FILLER_0_10_531
*1387 FILLER_0_10_533