*SPEF "ieee 1481-1999"
*DESIGN "full_system"
*DATE "11:11:11 Fri 11 11, 1111"
*VENDOR "OpenRCX"
*PROGRAM "Parallel Extraction"
*VERSION "1.0"
*DESIGN_FLOW "NAME_SCOPE LOCAL" "PIN_CAP NONE"
*DIVIDER /
*DELIMITER :
*BUS_DELIMITER []
*T_UNIT 1 NS
*C_UNIT 1 PF
*R_UNIT 1 OHM
*L_UNIT 1 HENRY

*NAME_MAP
*3 an[0]
*4 an[1]
*5 btn_step
*6 clk
*7 dp
*8 rst
*9 seg[0]
*10 seg[1]
*11 seg[2]
*12 seg[3]
*13 seg[4]
*14 seg[5]
*15 seg[6]
*16 _000_
*17 _001_
*18 _002_
*19 _003_
*20 _004_
*21 _005_
*22 _006_
*23 _007_
*24 _008_
*25 _009_
*26 _010_
*27 _011_
*28 _012_
*29 _013_
*30 _014_
*31 _015_
*32 _016_
*33 _017_
*34 _018_
*35 _019_
*36 _020_
*37 _021_
*38 _022_
*39 _023_
*40 _024_
*41 _025_
*42 _026_
*43 _027_
*44 _028_
*45 _029_
*46 _030_
*47 _031_
*48 _032_
*49 _033_
*50 _034_
*51 _035_
*52 _036_
*53 _037_
*54 _038_
*55 _039_
*56 _040_
*57 _041_
*58 _042_
*59 _043_
*60 _044_
*61 _045_
*62 _046_
*63 _047_
*64 _048_
*65 _049_
*66 _050_
*67 _051_
*68 _052_
*69 _053_
*70 _054_
*71 _055_
*72 _056_
*73 clknet_0_clk
*74 clknet_1_0__leaf_clk
*75 clknet_1_1__leaf_clk
*76 u_sevenseg\.refresh_count\[0\]
*77 u_sevenseg\.refresh_count\[10\]
*78 u_sevenseg\.refresh_count\[11\]
*79 u_sevenseg\.refresh_count\[12\]
*80 u_sevenseg\.refresh_count\[1\]
*81 u_sevenseg\.refresh_count\[2\]
*82 u_sevenseg\.refresh_count\[3\]
*83 u_sevenseg\.refresh_count\[4\]
*84 u_sevenseg\.refresh_count\[5\]
*85 u_sevenseg\.refresh_count\[6\]
*86 u_sevenseg\.refresh_count\[7\]
*87 u_sevenseg\.refresh_count\[8\]
*88 u_sevenseg\.refresh_count\[9\]
*89 ANTENNA_1
*90 ANTENNA_2
*91 ANTENNA_3
*92 FILLER_0_0_1005
*93 FILLER_0_0_1009
*94 FILLER_0_0_1021
*95 FILLER_0_0_1033
*96 FILLER_0_0_1037
*97 FILLER_0_0_1049
*98 FILLER_0_0_1061
*99 FILLER_0_0_1065
*100 FILLER_0_0_1077
*101 FILLER_0_0_1089
*102 FILLER_0_0_109
*103 FILLER_0_0_1093
*104 FILLER_0_0_1105
*105 FILLER_0_0_1117
*106 FILLER_0_0_1121
*107 FILLER_0_0_113
*108 FILLER_0_0_1133
*109 FILLER_0_0_1145
*110 FILLER_0_0_1149
*111 FILLER_0_0_1161
*112 FILLER_0_0_1173
*113 FILLER_0_0_1177
*114 FILLER_0_0_1189
*115 FILLER_0_0_1201
*116 FILLER_0_0_1205
*117 FILLER_0_0_1217
*118 FILLER_0_0_1229
*119 FILLER_0_0_1233
*120 FILLER_0_0_1245
*121 FILLER_0_0_125
*122 FILLER_0_0_1257
*123 FILLER_0_0_1261
*124 FILLER_0_0_1273
*125 FILLER_0_0_137
*126 FILLER_0_0_141
*127 FILLER_0_0_15
*128 FILLER_0_0_153
*129 FILLER_0_0_165
*130 FILLER_0_0_169
*131 FILLER_0_0_181
*132 FILLER_0_0_193
*133 FILLER_0_0_197
*134 FILLER_0_0_209
*135 FILLER_0_0_221
*136 FILLER_0_0_225
*137 FILLER_0_0_237
*138 FILLER_0_0_249
*139 FILLER_0_0_253
*140 FILLER_0_0_265
*141 FILLER_0_0_27
*142 FILLER_0_0_277
*143 FILLER_0_0_281
*144 FILLER_0_0_29
*145 FILLER_0_0_293
*146 FILLER_0_0_3
*147 FILLER_0_0_305
*148 FILLER_0_0_309
*149 FILLER_0_0_321
*150 FILLER_0_0_333
*151 FILLER_0_0_337
*152 FILLER_0_0_349
*153 FILLER_0_0_361
*154 FILLER_0_0_365
*155 FILLER_0_0_377
*156 FILLER_0_0_389
*157 FILLER_0_0_393
*158 FILLER_0_0_405
*159 FILLER_0_0_41
*160 FILLER_0_0_417
*161 FILLER_0_0_421
*162 FILLER_0_0_433
*163 FILLER_0_0_445
*164 FILLER_0_0_449
*165 FILLER_0_0_461
*166 FILLER_0_0_473
*167 FILLER_0_0_477
*168 FILLER_0_0_489
*169 FILLER_0_0_501
*170 FILLER_0_0_505
*171 FILLER_0_0_517
*172 FILLER_0_0_529
*173 FILLER_0_0_53
*174 FILLER_0_0_533
*175 FILLER_0_0_545
*176 FILLER_0_0_557
*177 FILLER_0_0_561
*178 FILLER_0_0_57
*179 FILLER_0_0_573
*180 FILLER_0_0_585
*181 FILLER_0_0_589
*182 FILLER_0_0_601
*183 FILLER_0_0_613
*184 FILLER_0_0_617
*185 FILLER_0_0_629
*186 FILLER_0_0_641
*187 FILLER_0_0_645
*188 FILLER_0_0_657
*189 FILLER_0_0_669
*190 FILLER_0_0_673
*191 FILLER_0_0_685
*192 FILLER_0_0_69
*193 FILLER_0_0_697
*194 FILLER_0_0_701
*195 FILLER_0_0_713
*196 FILLER_0_0_725
*197 FILLER_0_0_729
*198 FILLER_0_0_741
*199 FILLER_0_0_753
*200 FILLER_0_0_757
*201 FILLER_0_0_769
*202 FILLER_0_0_781
*203 FILLER_0_0_785
*204 FILLER_0_0_797
*205 FILLER_0_0_809
*206 FILLER_0_0_81
*207 FILLER_0_0_813
*208 FILLER_0_0_825
*209 FILLER_0_0_837
*210 FILLER_0_0_841
*211 FILLER_0_0_85
*212 FILLER_0_0_853
*213 FILLER_0_0_865
*214 FILLER_0_0_869
*215 FILLER_0_0_881
*216 FILLER_0_0_893
*217 FILLER_0_0_897
*218 FILLER_0_0_909
*219 FILLER_0_0_921
*220 FILLER_0_0_925
*221 FILLER_0_0_937
*222 FILLER_0_0_949
*223 FILLER_0_0_953
*224 FILLER_0_0_965
*225 FILLER_0_0_97
*226 FILLER_0_0_977
*227 FILLER_0_0_981
*228 FILLER_0_0_993
*229 FILLER_0_100_1005
*230 FILLER_0_100_1017
*231 FILLER_0_100_1029
*232 FILLER_0_100_1035
*233 FILLER_0_100_1037
*234 FILLER_0_100_1049
*235 FILLER_0_100_1061
*236 FILLER_0_100_1073
*237 FILLER_0_100_1085
*238 FILLER_0_100_109
*239 FILLER_0_100_1091
*240 FILLER_0_100_1093
*241 FILLER_0_100_1105
*242 FILLER_0_100_1117
*243 FILLER_0_100_1129
*244 FILLER_0_100_1141
*245 FILLER_0_100_1147
*246 FILLER_0_100_1149
*247 FILLER_0_100_1161
*248 FILLER_0_100_1173
*249 FILLER_0_100_1185
*250 FILLER_0_100_1197
*251 FILLER_0_100_1203
*252 FILLER_0_100_1205
*253 FILLER_0_100_121
*254 FILLER_0_100_1217
*255 FILLER_0_100_1229
*256 FILLER_0_100_1241
*257 FILLER_0_100_1253
*258 FILLER_0_100_1259
*259 FILLER_0_100_1261
*260 FILLER_0_100_1273
*261 FILLER_0_100_133
*262 FILLER_0_100_139
*263 FILLER_0_100_141
*264 FILLER_0_100_15
*265 FILLER_0_100_153
*266 FILLER_0_100_165
*267 FILLER_0_100_177
*268 FILLER_0_100_189
*269 FILLER_0_100_195
*270 FILLER_0_100_197
*271 FILLER_0_100_209
*272 FILLER_0_100_221
*273 FILLER_0_100_233
*274 FILLER_0_100_245
*275 FILLER_0_100_251
*276 FILLER_0_100_253
*277 FILLER_0_100_265
*278 FILLER_0_100_27
*279 FILLER_0_100_277
*280 FILLER_0_100_289
*281 FILLER_0_100_29
*282 FILLER_0_100_3
*283 FILLER_0_100_301
*284 FILLER_0_100_307
*285 FILLER_0_100_309
*286 FILLER_0_100_321
*287 FILLER_0_100_333
*288 FILLER_0_100_345
*289 FILLER_0_100_357
*290 FILLER_0_100_363
*291 FILLER_0_100_365
*292 FILLER_0_100_377
*293 FILLER_0_100_389
*294 FILLER_0_100_401
*295 FILLER_0_100_41
*296 FILLER_0_100_413
*297 FILLER_0_100_419
*298 FILLER_0_100_421
*299 FILLER_0_100_433
*300 FILLER_0_100_445
*301 FILLER_0_100_457
*302 FILLER_0_100_469
*303 FILLER_0_100_475
*304 FILLER_0_100_477
*305 FILLER_0_100_489
*306 FILLER_0_100_501
*307 FILLER_0_100_513
*308 FILLER_0_100_525
*309 FILLER_0_100_53
*310 FILLER_0_100_531
*311 FILLER_0_100_533
*312 FILLER_0_100_545
*313 FILLER_0_100_557
*314 FILLER_0_100_569
*315 FILLER_0_100_581
*316 FILLER_0_100_587
*317 FILLER_0_100_589
*318 FILLER_0_100_601
*319 FILLER_0_100_613
*320 FILLER_0_100_625
*321 FILLER_0_100_637
*322 FILLER_0_100_643
*323 FILLER_0_100_645
*324 FILLER_0_100_65
*325 FILLER_0_100_657
*326 FILLER_0_100_669
*327 FILLER_0_100_681
*328 FILLER_0_100_693
*329 FILLER_0_100_699
*330 FILLER_0_100_701
*331 FILLER_0_100_713
*332 FILLER_0_100_725
*333 FILLER_0_100_737
*334 FILLER_0_100_749
*335 FILLER_0_100_755
*336 FILLER_0_100_757
*337 FILLER_0_100_769
*338 FILLER_0_100_77
*339 FILLER_0_100_781
*340 FILLER_0_100_793
*341 FILLER_0_100_805
*342 FILLER_0_100_811
*343 FILLER_0_100_813
*344 FILLER_0_100_825
*345 FILLER_0_100_83
*346 FILLER_0_100_837
*347 FILLER_0_100_849
*348 FILLER_0_100_85
*349 FILLER_0_100_861
*350 FILLER_0_100_867
*351 FILLER_0_100_869
*352 FILLER_0_100_881
*353 FILLER_0_100_893
*354 FILLER_0_100_905
*355 FILLER_0_100_917
*356 FILLER_0_100_923
*357 FILLER_0_100_925
*358 FILLER_0_100_937
*359 FILLER_0_100_949
*360 FILLER_0_100_961
*361 FILLER_0_100_97
*362 FILLER_0_100_973
*363 FILLER_0_100_979
*364 FILLER_0_100_981
*365 FILLER_0_100_993
*366 FILLER_0_101_1001
*367 FILLER_0_101_1007
*368 FILLER_0_101_1009
*369 FILLER_0_101_1021
*370 FILLER_0_101_1033
*371 FILLER_0_101_1045
*372 FILLER_0_101_1057
*373 FILLER_0_101_106
*374 FILLER_0_101_1063
*375 FILLER_0_101_1065
*376 FILLER_0_101_1077
*377 FILLER_0_101_1089
*378 FILLER_0_101_1101
*379 FILLER_0_101_1113
*380 FILLER_0_101_1119
*381 FILLER_0_101_1121
*382 FILLER_0_101_113
*383 FILLER_0_101_1133
*384 FILLER_0_101_1145
*385 FILLER_0_101_1157
*386 FILLER_0_101_1169
*387 FILLER_0_101_1175
*388 FILLER_0_101_1177
*389 FILLER_0_101_1189
*390 FILLER_0_101_1201
*391 FILLER_0_101_1213
*392 FILLER_0_101_1225
*393 FILLER_0_101_1231
*394 FILLER_0_101_1233
*395 FILLER_0_101_1245
*396 FILLER_0_101_125
*397 FILLER_0_101_1257
*398 FILLER_0_101_1269
*399 FILLER_0_101_137
*400 FILLER_0_101_149
*401 FILLER_0_101_15
*402 FILLER_0_101_161
*403 FILLER_0_101_167
*404 FILLER_0_101_169
*405 FILLER_0_101_181
*406 FILLER_0_101_193
*407 FILLER_0_101_205
*408 FILLER_0_101_217
*409 FILLER_0_101_223
*410 FILLER_0_101_225
*411 FILLER_0_101_237
*412 FILLER_0_101_249
*413 FILLER_0_101_261
*414 FILLER_0_101_27
*415 FILLER_0_101_273
*416 FILLER_0_101_279
*417 FILLER_0_101_281
*418 FILLER_0_101_293
*419 FILLER_0_101_3
*420 FILLER_0_101_305
*421 FILLER_0_101_317
*422 FILLER_0_101_329
*423 FILLER_0_101_335
*424 FILLER_0_101_337
*425 FILLER_0_101_349
*426 FILLER_0_101_361
*427 FILLER_0_101_373
*428 FILLER_0_101_385
*429 FILLER_0_101_39
*430 FILLER_0_101_391
*431 FILLER_0_101_393
*432 FILLER_0_101_405
*433 FILLER_0_101_417
*434 FILLER_0_101_429
*435 FILLER_0_101_441
*436 FILLER_0_101_447
*437 FILLER_0_101_449
*438 FILLER_0_101_461
*439 FILLER_0_101_473
*440 FILLER_0_101_485
*441 FILLER_0_101_497
*442 FILLER_0_101_503
*443 FILLER_0_101_505
*444 FILLER_0_101_51
*445 FILLER_0_101_517
*446 FILLER_0_101_529
*447 FILLER_0_101_541
*448 FILLER_0_101_55
*449 FILLER_0_101_553
*450 FILLER_0_101_559
*451 FILLER_0_101_561
*452 FILLER_0_101_573
*453 FILLER_0_101_585
*454 FILLER_0_101_597
*455 FILLER_0_101_609
*456 FILLER_0_101_615
*457 FILLER_0_101_617
*458 FILLER_0_101_629
*459 FILLER_0_101_641
*460 FILLER_0_101_653
*461 FILLER_0_101_665
*462 FILLER_0_101_671
*463 FILLER_0_101_673
*464 FILLER_0_101_685
*465 FILLER_0_101_697
*466 FILLER_0_101_70
*467 FILLER_0_101_709
*468 FILLER_0_101_721
*469 FILLER_0_101_727
*470 FILLER_0_101_729
*471 FILLER_0_101_741
*472 FILLER_0_101_753
*473 FILLER_0_101_765
*474 FILLER_0_101_777
*475 FILLER_0_101_783
*476 FILLER_0_101_785
*477 FILLER_0_101_797
*478 FILLER_0_101_809
*479 FILLER_0_101_82
*480 FILLER_0_101_821
*481 FILLER_0_101_833
*482 FILLER_0_101_839
*483 FILLER_0_101_841
*484 FILLER_0_101_853
*485 FILLER_0_101_865
*486 FILLER_0_101_877
*487 FILLER_0_101_889
*488 FILLER_0_101_895
*489 FILLER_0_101_897
*490 FILLER_0_101_909
*491 FILLER_0_101_921
*492 FILLER_0_101_933
*493 FILLER_0_101_94
*494 FILLER_0_101_945
*495 FILLER_0_101_951
*496 FILLER_0_101_953
*497 FILLER_0_101_965
*498 FILLER_0_101_977
*499 FILLER_0_101_989
*500 FILLER_0_102_1005
*501 FILLER_0_102_1017
*502 FILLER_0_102_1029
*503 FILLER_0_102_1035
*504 FILLER_0_102_1037
*505 FILLER_0_102_1049
*506 FILLER_0_102_1061
*507 FILLER_0_102_1073
*508 FILLER_0_102_1085
*509 FILLER_0_102_109
*510 FILLER_0_102_1091
*511 FILLER_0_102_1093
*512 FILLER_0_102_1105
*513 FILLER_0_102_1117
*514 FILLER_0_102_1129
*515 FILLER_0_102_1141
*516 FILLER_0_102_1147
*517 FILLER_0_102_1149
*518 FILLER_0_102_1161
*519 FILLER_0_102_1173
*520 FILLER_0_102_1185
*521 FILLER_0_102_1197
*522 FILLER_0_102_1203
*523 FILLER_0_102_1205
*524 FILLER_0_102_121
*525 FILLER_0_102_1217
*526 FILLER_0_102_1229
*527 FILLER_0_102_1241
*528 FILLER_0_102_1253
*529 FILLER_0_102_1259
*530 FILLER_0_102_1261
*531 FILLER_0_102_1273
*532 FILLER_0_102_133
*533 FILLER_0_102_139
*534 FILLER_0_102_141
*535 FILLER_0_102_15
*536 FILLER_0_102_153
*537 FILLER_0_102_165
*538 FILLER_0_102_177
*539 FILLER_0_102_189
*540 FILLER_0_102_195
*541 FILLER_0_102_197
*542 FILLER_0_102_209
*543 FILLER_0_102_221
*544 FILLER_0_102_233
*545 FILLER_0_102_245
*546 FILLER_0_102_251
*547 FILLER_0_102_253
*548 FILLER_0_102_265
*549 FILLER_0_102_27
*550 FILLER_0_102_277
*551 FILLER_0_102_289
*552 FILLER_0_102_29
*553 FILLER_0_102_3
*554 FILLER_0_102_301
*555 FILLER_0_102_307
*556 FILLER_0_102_309
*557 FILLER_0_102_321
*558 FILLER_0_102_333
*559 FILLER_0_102_345
*560 FILLER_0_102_357
*561 FILLER_0_102_363
*562 FILLER_0_102_365
*563 FILLER_0_102_377
*564 FILLER_0_102_389
*565 FILLER_0_102_401
*566 FILLER_0_102_41
*567 FILLER_0_102_413
*568 FILLER_0_102_419
*569 FILLER_0_102_421
*570 FILLER_0_102_433
*571 FILLER_0_102_445
*572 FILLER_0_102_457
*573 FILLER_0_102_469
*574 FILLER_0_102_475
*575 FILLER_0_102_477
*576 FILLER_0_102_489
*577 FILLER_0_102_501
*578 FILLER_0_102_513
*579 FILLER_0_102_525
*580 FILLER_0_102_53
*581 FILLER_0_102_531
*582 FILLER_0_102_533
*583 FILLER_0_102_545
*584 FILLER_0_102_557
*585 FILLER_0_102_569
*586 FILLER_0_102_581
*587 FILLER_0_102_587
*588 FILLER_0_102_589
*589 FILLER_0_102_601
*590 FILLER_0_102_613
*591 FILLER_0_102_625
*592 FILLER_0_102_637
*593 FILLER_0_102_643
*594 FILLER_0_102_645
*595 FILLER_0_102_65
*596 FILLER_0_102_657
*597 FILLER_0_102_669
*598 FILLER_0_102_681
*599 FILLER_0_102_693
*600 FILLER_0_102_699
*601 FILLER_0_102_701
*602 FILLER_0_102_713
*603 FILLER_0_102_725
*604 FILLER_0_102_737
*605 FILLER_0_102_749
*606 FILLER_0_102_755
*607 FILLER_0_102_757
*608 FILLER_0_102_769
*609 FILLER_0_102_77
*610 FILLER_0_102_781
*611 FILLER_0_102_793
*612 FILLER_0_102_805
*613 FILLER_0_102_811
*614 FILLER_0_102_813
*615 FILLER_0_102_825
*616 FILLER_0_102_83
*617 FILLER_0_102_837
*618 FILLER_0_102_849
*619 FILLER_0_102_85
*620 FILLER_0_102_861
*621 FILLER_0_102_867
*622 FILLER_0_102_869
*623 FILLER_0_102_881
*624 FILLER_0_102_893
*625 FILLER_0_102_905
*626 FILLER_0_102_917
*627 FILLER_0_102_923
*628 FILLER_0_102_925
*629 FILLER_0_102_937
*630 FILLER_0_102_949
*631 FILLER_0_102_961
*632 FILLER_0_102_97
*633 FILLER_0_102_973
*634 FILLER_0_102_979
*635 FILLER_0_102_981
*636 FILLER_0_102_993
*637 FILLER_0_103_1001
*638 FILLER_0_103_1007
*639 FILLER_0_103_1009
*640 FILLER_0_103_1021
*641 FILLER_0_103_1033
*642 FILLER_0_103_1045
*643 FILLER_0_103_105
*644 FILLER_0_103_1057
*645 FILLER_0_103_1063
*646 FILLER_0_103_1065
*647 FILLER_0_103_1077
*648 FILLER_0_103_1089
*649 FILLER_0_103_1101
*650 FILLER_0_103_111
*651 FILLER_0_103_1113
*652 FILLER_0_103_1119
*653 FILLER_0_103_1121
*654 FILLER_0_103_113
*655 FILLER_0_103_1133
*656 FILLER_0_103_1145
*657 FILLER_0_103_1157
*658 FILLER_0_103_1169
*659 FILLER_0_103_1175
*660 FILLER_0_103_1177
*661 FILLER_0_103_1189
*662 FILLER_0_103_1201
*663 FILLER_0_103_1213
*664 FILLER_0_103_1225
*665 FILLER_0_103_1231
*666 FILLER_0_103_1233
*667 FILLER_0_103_1245
*668 FILLER_0_103_125
*669 FILLER_0_103_1257
*670 FILLER_0_103_1269
*671 FILLER_0_103_137
*672 FILLER_0_103_149
*673 FILLER_0_103_15
*674 FILLER_0_103_161
*675 FILLER_0_103_167
*676 FILLER_0_103_169
*677 FILLER_0_103_181
*678 FILLER_0_103_193
*679 FILLER_0_103_205
*680 FILLER_0_103_217
*681 FILLER_0_103_223
*682 FILLER_0_103_225
*683 FILLER_0_103_237
*684 FILLER_0_103_249
*685 FILLER_0_103_261
*686 FILLER_0_103_27
*687 FILLER_0_103_273
*688 FILLER_0_103_279
*689 FILLER_0_103_281
*690 FILLER_0_103_293
*691 FILLER_0_103_3
*692 FILLER_0_103_305
*693 FILLER_0_103_317
*694 FILLER_0_103_329
*695 FILLER_0_103_335
*696 FILLER_0_103_337
*697 FILLER_0_103_349
*698 FILLER_0_103_361
*699 FILLER_0_103_373
*700 FILLER_0_103_385
*701 FILLER_0_103_39
*702 FILLER_0_103_391
*703 FILLER_0_103_393
*704 FILLER_0_103_405
*705 FILLER_0_103_417
*706 FILLER_0_103_429
*707 FILLER_0_103_441
*708 FILLER_0_103_447
*709 FILLER_0_103_449
*710 FILLER_0_103_461
*711 FILLER_0_103_473
*712 FILLER_0_103_485
*713 FILLER_0_103_497
*714 FILLER_0_103_503
*715 FILLER_0_103_505
*716 FILLER_0_103_51
*717 FILLER_0_103_517
*718 FILLER_0_103_529
*719 FILLER_0_103_541
*720 FILLER_0_103_55
*721 FILLER_0_103_553
*722 FILLER_0_103_559
*723 FILLER_0_103_561
*724 FILLER_0_103_57
*725 FILLER_0_103_573
*726 FILLER_0_103_585
*727 FILLER_0_103_597
*728 FILLER_0_103_609
*729 FILLER_0_103_615
*730 FILLER_0_103_617
*731 FILLER_0_103_629
*732 FILLER_0_103_641
*733 FILLER_0_103_653
*734 FILLER_0_103_665
*735 FILLER_0_103_671
*736 FILLER_0_103_673
*737 FILLER_0_103_685
*738 FILLER_0_103_69
*739 FILLER_0_103_697
*740 FILLER_0_103_709
*741 FILLER_0_103_721
*742 FILLER_0_103_727
*743 FILLER_0_103_729
*744 FILLER_0_103_741
*745 FILLER_0_103_753
*746 FILLER_0_103_765
*747 FILLER_0_103_777
*748 FILLER_0_103_783
*749 FILLER_0_103_785
*750 FILLER_0_103_797
*751 FILLER_0_103_809
*752 FILLER_0_103_81
*753 FILLER_0_103_821
*754 FILLER_0_103_833
*755 FILLER_0_103_839
*756 FILLER_0_103_841
*757 FILLER_0_103_853
*758 FILLER_0_103_865
*759 FILLER_0_103_877
*760 FILLER_0_103_889
*761 FILLER_0_103_895
*762 FILLER_0_103_897
*763 FILLER_0_103_909
*764 FILLER_0_103_921
*765 FILLER_0_103_93
*766 FILLER_0_103_933
*767 FILLER_0_103_945
*768 FILLER_0_103_951
*769 FILLER_0_103_953
*770 FILLER_0_103_965
*771 FILLER_0_103_977
*772 FILLER_0_103_989
*773 FILLER_0_104_1005
*774 FILLER_0_104_1017
*775 FILLER_0_104_1029
*776 FILLER_0_104_1035
*777 FILLER_0_104_1037
*778 FILLER_0_104_1049
*779 FILLER_0_104_1061
*780 FILLER_0_104_1073
*781 FILLER_0_104_1085
*782 FILLER_0_104_109
*783 FILLER_0_104_1091
*784 FILLER_0_104_1093
*785 FILLER_0_104_1105
*786 FILLER_0_104_1117
*787 FILLER_0_104_1129
*788 FILLER_0_104_1141
*789 FILLER_0_104_1147
*790 FILLER_0_104_1149
*791 FILLER_0_104_1161
*792 FILLER_0_104_1173
*793 FILLER_0_104_1185
*794 FILLER_0_104_1197
*795 FILLER_0_104_1203
*796 FILLER_0_104_1205
*797 FILLER_0_104_121
*798 FILLER_0_104_1217
*799 FILLER_0_104_1229
*800 FILLER_0_104_1241
*801 FILLER_0_104_1253
*802 FILLER_0_104_1259
*803 FILLER_0_104_1261
*804 FILLER_0_104_1273
*805 FILLER_0_104_133
*806 FILLER_0_104_139
*807 FILLER_0_104_141
*808 FILLER_0_104_15
*809 FILLER_0_104_153
*810 FILLER_0_104_165
*811 FILLER_0_104_177
*812 FILLER_0_104_189
*813 FILLER_0_104_195
*814 FILLER_0_104_197
*815 FILLER_0_104_209
*816 FILLER_0_104_221
*817 FILLER_0_104_233
*818 FILLER_0_104_245
*819 FILLER_0_104_251
*820 FILLER_0_104_253
*821 FILLER_0_104_265
*822 FILLER_0_104_27
*823 FILLER_0_104_277
*824 FILLER_0_104_289
*825 FILLER_0_104_29
*826 FILLER_0_104_3
*827 FILLER_0_104_301
*828 FILLER_0_104_307
*829 FILLER_0_104_309
*830 FILLER_0_104_321
*831 FILLER_0_104_333
*832 FILLER_0_104_345
*833 FILLER_0_104_357
*834 FILLER_0_104_363
*835 FILLER_0_104_365
*836 FILLER_0_104_377
*837 FILLER_0_104_389
*838 FILLER_0_104_401
*839 FILLER_0_104_41
*840 FILLER_0_104_413
*841 FILLER_0_104_419
*842 FILLER_0_104_421
*843 FILLER_0_104_433
*844 FILLER_0_104_445
*845 FILLER_0_104_457
*846 FILLER_0_104_469
*847 FILLER_0_104_475
*848 FILLER_0_104_477
*849 FILLER_0_104_489
*850 FILLER_0_104_501
*851 FILLER_0_104_513
*852 FILLER_0_104_525
*853 FILLER_0_104_53
*854 FILLER_0_104_531
*855 FILLER_0_104_533
*856 FILLER_0_104_545
*857 FILLER_0_104_557
*858 FILLER_0_104_569
*859 FILLER_0_104_581
*860 FILLER_0_104_587
*861 FILLER_0_104_589
*862 FILLER_0_104_601
*863 FILLER_0_104_613
*864 FILLER_0_104_625
*865 FILLER_0_104_637
*866 FILLER_0_104_643
*867 FILLER_0_104_645
*868 FILLER_0_104_65
*869 FILLER_0_104_657
*870 FILLER_0_104_669
*871 FILLER_0_104_681
*872 FILLER_0_104_693
*873 FILLER_0_104_699
*874 FILLER_0_104_701
*875 FILLER_0_104_713
*876 FILLER_0_104_725
*877 FILLER_0_104_737
*878 FILLER_0_104_749
*879 FILLER_0_104_755
*880 FILLER_0_104_757
*881 FILLER_0_104_769
*882 FILLER_0_104_77
*883 FILLER_0_104_781
*884 FILLER_0_104_793
*885 FILLER_0_104_805
*886 FILLER_0_104_811
*887 FILLER_0_104_813
*888 FILLER_0_104_825
*889 FILLER_0_104_83
*890 FILLER_0_104_837
*891 FILLER_0_104_849
*892 FILLER_0_104_85
*893 FILLER_0_104_861
*894 FILLER_0_104_867
*895 FILLER_0_104_869
*896 FILLER_0_104_881
*897 FILLER_0_104_893
*898 FILLER_0_104_905
*899 FILLER_0_104_917
*900 FILLER_0_104_923
*901 FILLER_0_104_925
*902 FILLER_0_104_937
*903 FILLER_0_104_949
*904 FILLER_0_104_961
*905 FILLER_0_104_97
*906 FILLER_0_104_973
*907 FILLER_0_104_979
*908 FILLER_0_104_981
*909 FILLER_0_104_993
*910 FILLER_0_105_1001
*911 FILLER_0_105_1007
*912 FILLER_0_105_1009
*913 FILLER_0_105_1021
*914 FILLER_0_105_1033
*915 FILLER_0_105_1045
*916 FILLER_0_105_105
*917 FILLER_0_105_1057
*918 FILLER_0_105_1063
*919 FILLER_0_105_1065
*920 FILLER_0_105_1077
*921 FILLER_0_105_1089
*922 FILLER_0_105_1101
*923 FILLER_0_105_111
*924 FILLER_0_105_1113
*925 FILLER_0_105_1119
*926 FILLER_0_105_1121
*927 FILLER_0_105_113
*928 FILLER_0_105_1133
*929 FILLER_0_105_1145
*930 FILLER_0_105_1157
*931 FILLER_0_105_1169
*932 FILLER_0_105_1175
*933 FILLER_0_105_1177
*934 FILLER_0_105_1189
*935 FILLER_0_105_1201
*936 FILLER_0_105_1213
*937 FILLER_0_105_1225
*938 FILLER_0_105_1231
*939 FILLER_0_105_1233
*940 FILLER_0_105_1245
*941 FILLER_0_105_125
*942 FILLER_0_105_1257
*943 FILLER_0_105_1269
*944 FILLER_0_105_137
*945 FILLER_0_105_149
*946 FILLER_0_105_15
*947 FILLER_0_105_161
*948 FILLER_0_105_167
*949 FILLER_0_105_169
*950 FILLER_0_105_181
*951 FILLER_0_105_193
*952 FILLER_0_105_205
*953 FILLER_0_105_217
*954 FILLER_0_105_223
*955 FILLER_0_105_225
*956 FILLER_0_105_237
*957 FILLER_0_105_249
*958 FILLER_0_105_261
*959 FILLER_0_105_27
*960 FILLER_0_105_273
*961 FILLER_0_105_279
*962 FILLER_0_105_281
*963 FILLER_0_105_293
*964 FILLER_0_105_3
*965 FILLER_0_105_305
*966 FILLER_0_105_317
*967 FILLER_0_105_329
*968 FILLER_0_105_335
*969 FILLER_0_105_337
*970 FILLER_0_105_349
*971 FILLER_0_105_361
*972 FILLER_0_105_373
*973 FILLER_0_105_385
*974 FILLER_0_105_39
*975 FILLER_0_105_391
*976 FILLER_0_105_393
*977 FILLER_0_105_405
*978 FILLER_0_105_417
*979 FILLER_0_105_429
*980 FILLER_0_105_441
*981 FILLER_0_105_447
*982 FILLER_0_105_449
*983 FILLER_0_105_461
*984 FILLER_0_105_473
*985 FILLER_0_105_485
*986 FILLER_0_105_497
*987 FILLER_0_105_503
*988 FILLER_0_105_505
*989 FILLER_0_105_51
*990 FILLER_0_105_517
*991 FILLER_0_105_529
*992 FILLER_0_105_541
*993 FILLER_0_105_55
*994 FILLER_0_105_553
*995 FILLER_0_105_559
*996 FILLER_0_105_561
*997 FILLER_0_105_57
*998 FILLER_0_105_573
*999 FILLER_0_105_585
*1000 FILLER_0_105_597
*1001 FILLER_0_105_609
*1002 FILLER_0_105_615
*1003 FILLER_0_105_617
*1004 FILLER_0_105_629
*1005 FILLER_0_105_641
*1006 FILLER_0_105_653
*1007 FILLER_0_105_665
*1008 FILLER_0_105_671
*1009 FILLER_0_105_673
*1010 FILLER_0_105_685
*1011 FILLER_0_105_69
*1012 FILLER_0_105_697
*1013 FILLER_0_105_709
*1014 FILLER_0_105_721
*1015 FILLER_0_105_727
*1016 FILLER_0_105_729
*1017 FILLER_0_105_741
*1018 FILLER_0_105_753
*1019 FILLER_0_105_765
*1020 FILLER_0_105_777
*1021 FILLER_0_105_783
*1022 FILLER_0_105_785
*1023 FILLER_0_105_797
*1024 FILLER_0_105_809
*1025 FILLER_0_105_81
*1026 FILLER_0_105_821
*1027 FILLER_0_105_833
*1028 FILLER_0_105_839
*1029 FILLER_0_105_841
*1030 FILLER_0_105_853
*1031 FILLER_0_105_865
*1032 FILLER_0_105_877
*1033 FILLER_0_105_889
*1034 FILLER_0_105_895
*1035 FILLER_0_105_897
*1036 FILLER_0_105_909
*1037 FILLER_0_105_921
*1038 FILLER_0_105_93
*1039 FILLER_0_105_933
*1040 FILLER_0_105_945
*1041 FILLER_0_105_951
*1042 FILLER_0_105_953
*1043 FILLER_0_105_965
*1044 FILLER_0_105_977
*1045 FILLER_0_105_989
*1046 FILLER_0_106_1005
*1047 FILLER_0_106_1017
*1048 FILLER_0_106_1029
*1049 FILLER_0_106_1035
*1050 FILLER_0_106_1037
*1051 FILLER_0_106_1049
*1052 FILLER_0_106_1061
*1053 FILLER_0_106_1073
*1054 FILLER_0_106_1085
*1055 FILLER_0_106_109
*1056 FILLER_0_106_1091
*1057 FILLER_0_106_1093
*1058 FILLER_0_106_1105
*1059 FILLER_0_106_1117
*1060 FILLER_0_106_1129
*1061 FILLER_0_106_1141
*1062 FILLER_0_106_1147
*1063 FILLER_0_106_1149
*1064 FILLER_0_106_1161
*1065 FILLER_0_106_1173
*1066 FILLER_0_106_1185
*1067 FILLER_0_106_1197
*1068 FILLER_0_106_1203
*1069 FILLER_0_106_1205
*1070 FILLER_0_106_121
*1071 FILLER_0_106_1217
*1072 FILLER_0_106_1229
*1073 FILLER_0_106_1241
*1074 FILLER_0_106_1253
*1075 FILLER_0_106_1259
*1076 FILLER_0_106_1261
*1077 FILLER_0_106_1273
*1078 FILLER_0_106_133
*1079 FILLER_0_106_139
*1080 FILLER_0_106_141
*1081 FILLER_0_106_15
*1082 FILLER_0_106_153
*1083 FILLER_0_106_165
*1084 FILLER_0_106_177
*1085 FILLER_0_106_189
*1086 FILLER_0_106_195
*1087 FILLER_0_106_197
*1088 FILLER_0_106_209
*1089 FILLER_0_106_221
*1090 FILLER_0_106_233
*1091 FILLER_0_106_245
*1092 FILLER_0_106_251
*1093 FILLER_0_106_253
*1094 FILLER_0_106_265
*1095 FILLER_0_106_27
*1096 FILLER_0_106_277
*1097 FILLER_0_106_289
*1098 FILLER_0_106_29
*1099 FILLER_0_106_3
*1100 FILLER_0_106_301
*1101 FILLER_0_106_307
*1102 FILLER_0_106_309
*1103 FILLER_0_106_321
*1104 FILLER_0_106_333
*1105 FILLER_0_106_345
*1106 FILLER_0_106_357
*1107 FILLER_0_106_363
*1108 FILLER_0_106_365
*1109 FILLER_0_106_377
*1110 FILLER_0_106_389
*1111 FILLER_0_106_401
*1112 FILLER_0_106_41
*1113 FILLER_0_106_413
*1114 FILLER_0_106_419
*1115 FILLER_0_106_421
*1116 FILLER_0_106_433
*1117 FILLER_0_106_445
*1118 FILLER_0_106_457
*1119 FILLER_0_106_469
*1120 FILLER_0_106_475
*1121 FILLER_0_106_477
*1122 FILLER_0_106_493
*1123 FILLER_0_106_505
*1124 FILLER_0_106_517
*1125 FILLER_0_106_529
*1126 FILLER_0_106_53
*1127 FILLER_0_106_533
*1128 FILLER_0_106_545
*1129 FILLER_0_106_557
*1130 FILLER_0_106_569
*1131 FILLER_0_106_581
*1132 FILLER_0_106_587
*1133 FILLER_0_106_589
*1134 FILLER_0_106_601
*1135 FILLER_0_106_613
*1136 FILLER_0_106_625
*1137 FILLER_0_106_637
*1138 FILLER_0_106_643
*1139 FILLER_0_106_645
*1140 FILLER_0_106_65
*1141 FILLER_0_106_657
*1142 FILLER_0_106_669
*1143 FILLER_0_106_681
*1144 FILLER_0_106_693
*1145 FILLER_0_106_699
*1146 FILLER_0_106_701
*1147 FILLER_0_106_713
*1148 FILLER_0_106_725
*1149 FILLER_0_106_737
*1150 FILLER_0_106_749
*1151 FILLER_0_106_755
*1152 FILLER_0_106_757
*1153 FILLER_0_106_769
*1154 FILLER_0_106_77
*1155 FILLER_0_106_781
*1156 FILLER_0_106_793
*1157 FILLER_0_106_805
*1158 FILLER_0_106_811
*1159 FILLER_0_106_813
*1160 FILLER_0_106_825
*1161 FILLER_0_106_83
*1162 FILLER_0_106_837
*1163 FILLER_0_106_849
*1164 FILLER_0_106_85
*1165 FILLER_0_106_861
*1166 FILLER_0_106_867
*1167 FILLER_0_106_869
*1168 FILLER_0_106_881
*1169 FILLER_0_106_893
*1170 FILLER_0_106_905
*1171 FILLER_0_106_917
*1172 FILLER_0_106_923
*1173 FILLER_0_106_925
*1174 FILLER_0_106_937
*1175 FILLER_0_106_949
*1176 FILLER_0_106_961
*1177 FILLER_0_106_97
*1178 FILLER_0_106_973
*1179 FILLER_0_106_979
*1180 FILLER_0_106_981
*1181 FILLER_0_106_993
*1182 FILLER_0_107_1001
*1183 FILLER_0_107_1007
*1184 FILLER_0_107_1009
*1185 FILLER_0_107_1021
*1186 FILLER_0_107_1033
*1187 FILLER_0_107_1045
*1188 FILLER_0_107_105
*1189 FILLER_0_107_1057
*1190 FILLER_0_107_1063
*1191 FILLER_0_107_1065
*1192 FILLER_0_107_1077
*1193 FILLER_0_107_1089
*1194 FILLER_0_107_1101
*1195 FILLER_0_107_111
*1196 FILLER_0_107_1113
*1197 FILLER_0_107_1119
*1198 FILLER_0_107_1121
*1199 FILLER_0_107_113
*1200 FILLER_0_107_1133
*1201 FILLER_0_107_1145
*1202 FILLER_0_107_1157
*1203 FILLER_0_107_1169
*1204 FILLER_0_107_1175
*1205 FILLER_0_107_1177
*1206 FILLER_0_107_1189
*1207 FILLER_0_107_1201
*1208 FILLER_0_107_1213
*1209 FILLER_0_107_1225
*1210 FILLER_0_107_1231
*1211 FILLER_0_107_1233
*1212 FILLER_0_107_1245
*1213 FILLER_0_107_125
*1214 FILLER_0_107_1257
*1215 FILLER_0_107_1269
*1216 FILLER_0_107_137
*1217 FILLER_0_107_149
*1218 FILLER_0_107_15
*1219 FILLER_0_107_161
*1220 FILLER_0_107_167
*1221 FILLER_0_107_169
*1222 FILLER_0_107_181
*1223 FILLER_0_107_193
*1224 FILLER_0_107_205
*1225 FILLER_0_107_217
*1226 FILLER_0_107_223
*1227 FILLER_0_107_225
*1228 FILLER_0_107_237
*1229 FILLER_0_107_249
*1230 FILLER_0_107_261
*1231 FILLER_0_107_27
*1232 FILLER_0_107_273
*1233 FILLER_0_107_279
*1234 FILLER_0_107_281
*1235 FILLER_0_107_293
*1236 FILLER_0_107_3
*1237 FILLER_0_107_305
*1238 FILLER_0_107_317
*1239 FILLER_0_107_329
*1240 FILLER_0_107_335
*1241 FILLER_0_107_358
*1242 FILLER_0_107_370
*1243 FILLER_0_107_382
*1244 FILLER_0_107_39
*1245 FILLER_0_107_390
*1246 FILLER_0_107_393
*1247 FILLER_0_107_405
*1248 FILLER_0_107_417
*1249 FILLER_0_107_429
*1250 FILLER_0_107_441
*1251 FILLER_0_107_447
*1252 FILLER_0_107_449
*1253 FILLER_0_107_461
*1254 FILLER_0_107_473
*1255 FILLER_0_107_485
*1256 FILLER_0_107_497
*1257 FILLER_0_107_503
*1258 FILLER_0_107_505
*1259 FILLER_0_107_51
*1260 FILLER_0_107_517
*1261 FILLER_0_107_529
*1262 FILLER_0_107_541
*1263 FILLER_0_107_55
*1264 FILLER_0_107_553
*1265 FILLER_0_107_559
*1266 FILLER_0_107_561
*1267 FILLER_0_107_57
*1268 FILLER_0_107_573
*1269 FILLER_0_107_585
*1270 FILLER_0_107_597
*1271 FILLER_0_107_609
*1272 FILLER_0_107_615
*1273 FILLER_0_107_617
*1274 FILLER_0_107_629
*1275 FILLER_0_107_641
*1276 FILLER_0_107_653
*1277 FILLER_0_107_665
*1278 FILLER_0_107_671
*1279 FILLER_0_107_673
*1280 FILLER_0_107_685
*1281 FILLER_0_107_69
*1282 FILLER_0_107_697
*1283 FILLER_0_107_709
*1284 FILLER_0_107_721
*1285 FILLER_0_107_727
*1286 FILLER_0_107_729
*1287 FILLER_0_107_741
*1288 FILLER_0_107_753
*1289 FILLER_0_107_765
*1290 FILLER_0_107_777
*1291 FILLER_0_107_783
*1292 FILLER_0_107_785
*1293 FILLER_0_107_797
*1294 FILLER_0_107_809
*1295 FILLER_0_107_81
*1296 FILLER_0_107_821
*1297 FILLER_0_107_833
*1298 FILLER_0_107_839
*1299 FILLER_0_107_841
*1300 FILLER_0_107_853
*1301 FILLER_0_107_865
*1302 FILLER_0_107_877
*1303 FILLER_0_107_889
*1304 FILLER_0_107_895
*1305 FILLER_0_107_897
*1306 FILLER_0_107_909
*1307 FILLER_0_107_921
*1308 FILLER_0_107_93
*1309 FILLER_0_107_933
*1310 FILLER_0_107_945
*1311 FILLER_0_107_951
*1312 FILLER_0_107_953
*1313 FILLER_0_107_965
*1314 FILLER_0_107_977
*1315 FILLER_0_107_989
*1316 FILLER_0_108_1005
*1317 FILLER_0_108_1017
*1318 FILLER_0_108_1029
*1319 FILLER_0_108_1035
*1320 FILLER_0_108_1037
*1321 FILLER_0_108_1049
*1322 FILLER_0_108_1061
*1323 FILLER_0_108_1073
*1324 FILLER_0_108_1085
*1325 FILLER_0_108_109
*1326 FILLER_0_108_1091
*1327 FILLER_0_108_1093
*1328 FILLER_0_108_1105
*1329 FILLER_0_108_1117
*1330 FILLER_0_108_1129
*1331 FILLER_0_108_1141
*1332 FILLER_0_108_1147
*1333 FILLER_0_108_1149
*1334 FILLER_0_108_1161
*1335 FILLER_0_108_1173
*1336 FILLER_0_108_1185
*1337 FILLER_0_108_1197
*1338 FILLER_0_108_1203
*1339 FILLER_0_108_1205
*1340 FILLER_0_108_121
*1341 FILLER_0_108_1217
*1342 FILLER_0_108_1229
*1343 FILLER_0_108_1241
*1344 FILLER_0_108_1253
*1345 FILLER_0_108_1259
*1346 FILLER_0_108_1261
*1347 FILLER_0_108_1273
*1348 FILLER_0_108_133
*1349 FILLER_0_108_139
*1350 FILLER_0_108_141
*1351 FILLER_0_108_15
*1352 FILLER_0_108_153
*1353 FILLER_0_108_165
*1354 FILLER_0_108_177
*1355 FILLER_0_108_189
*1356 FILLER_0_108_195
*1357 FILLER_0_108_197
*1358 FILLER_0_108_209
*1359 FILLER_0_108_221
*1360 FILLER_0_108_233
*1361 FILLER_0_108_245
*1362 FILLER_0_108_251
*1363 FILLER_0_108_253
*1364 FILLER_0_108_265
*1365 FILLER_0_108_27
*1366 FILLER_0_108_277
*1367 FILLER_0_108_289
*1368 FILLER_0_108_29
*1369 FILLER_0_108_3
*1370 FILLER_0_108_301