* NGSPICE file created from full_system.ext - technology: sky130A

* Black-box entry subcircuit for sky130_fd_sc_hd__fill_1 abstract view
.subckt sky130_fd_sc_hd__fill_1 VGND VNB VPB VPWR
.ends

* Black-box entry subcircuit for sky130_fd_sc_hd__decap_6 abstract view
.subckt sky130_fd_sc_hd__decap_6 VGND VNB VPB VPWR
.ends

* Black-box entry subcircuit for sky130_ef_sc_hd__decap_12 abstract view
.subckt sky130_ef_sc_hd__decap_12 VPWR VGND VPB VNB
.ends

* Black-box entry subcircuit for sky130_fd_sc_hd__tapvpwrvgnd_1 abstract view
.subckt sky130_fd_sc_hd__tapvpwrvgnd_1 VGND VPWR
.ends

* Black-box entry subcircuit for sky130_fd_sc_hd__decap_4 abstract view
.subckt sky130_fd_sc_hd__decap_4 VGND VNB VPB VPWR
.ends

* Black-box entry subcircuit for sky130_fd_sc_hd__conb_1 abstract view
.subckt sky130_fd_sc_hd__conb_1 VGND VNB VPB VPWR HI LO
.ends

* Black-box entry subcircuit for sky130_fd_sc_hd__or4b_2 abstract view
.subckt sky130_fd_sc_hd__or4b_2 A B C D_N VGND VNB VPB VPWR X
.ends

* Black-box entry subcircuit for sky130_fd_sc_hd__decap_3 abstract view
.subckt sky130_fd_sc_hd__decap_3 VGND VNB VPB VPWR
.ends

* Black-box entry subcircuit for sky130_fd_sc_hd__inv_2 abstract view
.subckt sky130_fd_sc_hd__inv_2 A VGND VNB VPB VPWR Y
.ends

* Black-box entry subcircuit for sky130_fd_sc_hd__fill_2 abstract view
.subckt sky130_fd_sc_hd__fill_2 VGND VNB VPB VPWR
.ends

* Black-box entry subcircuit for sky130_fd_sc_hd__decap_8 abstract view
.subckt sky130_fd_sc_hd__decap_8 VGND VNB VPB VPWR
.ends

* Black-box entry subcircuit for sky130_fd_sc_hd__and3_2 abstract view
.subckt sky130_fd_sc_hd__and3_2 A B C VGND VNB VPB VPWR X
.ends

* Black-box entry subcircuit for sky130_fd_sc_hd__or4bb_2 abstract view
.subckt sky130_fd_sc_hd__or4bb_2 A B C_N D_N VGND VNB VPB VPWR X
.ends

* Black-box entry subcircuit for sky130_fd_sc_hd__buf_1 abstract view
.subckt sky130_fd_sc_hd__buf_1 A VGND VNB VPB VPWR X
.ends

* Black-box entry subcircuit for sky130_fd_sc_hd__clkbuf_16 abstract view
.subckt sky130_fd_sc_hd__clkbuf_16 A VGND VNB VPB VPWR X
.ends

* Black-box entry subcircuit for sky130_fd_sc_hd__a31o_2 abstract view
.subckt sky130_fd_sc_hd__a31o_2 A1 A2 A3 B1 VGND VNB VPB VPWR X
.ends

* Black-box entry subcircuit for sky130_fd_sc_hd__nand4_2 abstract view
.subckt sky130_fd_sc_hd__nand4_2 A B C D VGND VNB VPB VPWR Y
.ends

* Black-box entry subcircuit for sky130_fd_sc_hd__xor2_2 abstract view
.subckt sky130_fd_sc_hd__xor2_2 A B VGND VNB VPB VPWR X
.ends

* Black-box entry subcircuit for sky130_fd_sc_hd__xnor2_2 abstract view
.subckt sky130_fd_sc_hd__xnor2_2 A B VGND VNB VPB VPWR Y
.ends

* Black-box entry subcircuit for sky130_fd_sc_hd__nor2_2 abstract view
.subckt sky130_fd_sc_hd__nor2_2 A B VGND VNB VPB VPWR Y
.ends

* Black-box entry subcircuit for sky130_fd_sc_hd__a21oi_2 abstract view
.subckt sky130_fd_sc_hd__a21oi_2 A1 A2 B1 VGND VNB VPB VPWR Y
.ends

* Black-box entry subcircuit for sky130_fd_sc_hd__and2b_2 abstract view
.subckt sky130_fd_sc_hd__and2b_2 A_N B VGND VNB VPB VPWR X
.ends

* Black-box entry subcircuit for sky130_fd_sc_hd__dfrtp_2 abstract view
.subckt sky130_fd_sc_hd__dfrtp_2 CLK D RESET_B VGND VNB VPB VPWR Q
.ends

* Black-box entry subcircuit for sky130_fd_sc_hd__or4_2 abstract view
.subckt sky130_fd_sc_hd__or4_2 A B C D VGND VNB VPB VPWR X
.ends

* Black-box entry subcircuit for sky130_fd_sc_hd__nand2_2 abstract view
.subckt sky130_fd_sc_hd__nand2_2 A B VGND VNB VPB VPWR Y
.ends

* Black-box entry subcircuit for sky130_fd_sc_hd__and3b_2 abstract view
.subckt sky130_fd_sc_hd__and3b_2 A_N B C VGND VNB VPB VPWR X
.ends

* Black-box entry subcircuit for sky130_fd_sc_hd__or2_2 abstract view
.subckt sky130_fd_sc_hd__or2_2 A B VGND VNB VPB VPWR X
.ends

* Black-box entry subcircuit for sky130_fd_sc_hd__o211a_2 abstract view
.subckt sky130_fd_sc_hd__o211a_2 A1 A2 B1 C1 VGND VNB VPB VPWR X
.ends

* Black-box entry subcircuit for sky130_fd_sc_hd__and4_2 abstract view
.subckt sky130_fd_sc_hd__and4_2 A B C D VGND VNB VPB VPWR X
.ends

* Black-box entry subcircuit for sky130_fd_sc_hd__diode_2 abstract view
.subckt sky130_fd_sc_hd__diode_2 DIODE VGND VNB VPB VPWR
.ends

* Black-box entry subcircuit for sky130_fd_sc_hd__a21o_2 abstract view
.subckt sky130_fd_sc_hd__a21o_2 A1 A2 B1 VGND VNB VPB VPWR X
.ends

.subckt full_system VGND VPWR an[0] an[1] btn_step clk dp rst seg[0] seg[1] seg[2]
+ seg[3] seg[4] seg[5] seg[6]
XFILLER_0_158_1123 VGND VGND VPWR VPWR sky130_fd_sc_hd__fill_1
XFILLER_0_94_77 VGND VGND VPWR VPWR sky130_fd_sc_hd__decap_6
XFILLER_0_59_1231 VGND VGND VPWR VPWR sky130_fd_sc_hd__fill_1
XFILLER_0_27_93 VPWR VGND VPWR VGND sky130_ef_sc_hd__decap_12
XFILLER_0_210_905 VPWR VGND VPWR VGND sky130_ef_sc_hd__decap_12
XFILLER_0_89_461 VPWR VGND VPWR VGND sky130_ef_sc_hd__decap_12
XFILLER_0_167_809 VPWR VGND VPWR VGND sky130_ef_sc_hd__decap_12
XFILLER_0_210_949 VPWR VGND VPWR VGND sky130_ef_sc_hd__decap_12
XFILLER_0_193_105 VGND VGND VPWR VPWR sky130_fd_sc_hd__decap_6
XFILLER_0_76_133 VGND VGND VPWR VPWR sky130_fd_sc_hd__decap_6
XFILLER_0_134_83 VGND VGND VPWR VPWR sky130_fd_sc_hd__fill_1
XFILLER_0_193_149 VPWR VGND VPWR VGND sky130_ef_sc_hd__decap_12
XFILLER_0_159_393 VPWR VGND VPWR VGND sky130_ef_sc_hd__decap_12
XFILLER_0_18_701 VPWR VGND VPWR VGND sky130_ef_sc_hd__decap_12
XFILLER_0_43_81 VPWR VGND VPWR VGND sky130_ef_sc_hd__decap_12
XFILLER_0_175_853 VPWR VGND VPWR VGND sky130_ef_sc_hd__decap_12
XFILLER_0_58_881 VPWR VGND VPWR VGND sky130_ef_sc_hd__decap_12
XFILLER_0_76_177 VPWR VGND VPWR VGND sky130_ef_sc_hd__decap_12
XFILLER_0_92_637 VGND VGND VPWR VPWR sky130_fd_sc_hd__decap_6
XFILLER_0_91_125 VPWR VGND VPWR VGND sky130_ef_sc_hd__decap_12
XFILLER_0_174_363 VGND VGND VPWR VPWR sky130_fd_sc_hd__fill_1
XFILLER_0_57_391 VGND VGND VPWR VPWR sky130_fd_sc_hd__fill_1
XFILLER_0_175_897 VPWR VGND VPWR VGND sky130_ef_sc_hd__decap_12
XFILLER_0_119_279 VGND VGND VPWR VPWR sky130_fd_sc_hd__fill_1
XFILLER_0_162_525 VGND VGND VPWR VPWR sky130_fd_sc_hd__decap_6
XFILLER_0_45_553 VGND VGND VPWR VPWR sky130_fd_sc_hd__decap_6
XFILLER_0_91_169 VPWR VGND VPWR VGND sky130_ef_sc_hd__decap_12
XFILLER_0_60_501 VPWR VGND VPWR VGND sky130_ef_sc_hd__decap_12
XFILLER_0_190_867 VGND VGND VPWR VPWR sky130_fd_sc_hd__fill_1
XFILLER_0_73_895 VGND VGND VPWR VPWR sky130_fd_sc_hd__fill_1
XFILLER_0_162_569 VPWR VGND VPWR VGND sky130_ef_sc_hd__decap_12
XFILLER_0_115_441 VGND VGND VPWR VPWR sky130_fd_sc_hd__decap_6
XFILLER_0_45_597 VPWR VGND VPWR VGND sky130_ef_sc_hd__decap_12
XFILLER_0_60_545 VPWR VGND VPWR VGND sky130_ef_sc_hd__decap_12
XFILLER_0_143_783 VGND VGND VPWR VPWR sky130_fd_sc_hd__fill_1
XFILLER_0_115_485 VPWR VGND VPWR VGND sky130_ef_sc_hd__decap_12
XFILLER_0_131_945 VGND VGND VPWR VPWR sky130_fd_sc_hd__decap_6
XFILLER_0_14_973 VGND VGND VPWR VPWR sky130_fd_sc_hd__decap_6
XFILLER_0_60_589 VPWR VGND VPWR VGND sky130_ef_sc_hd__decap_12
XFILLER_0_130_433 VPWR VGND VPWR VGND sky130_ef_sc_hd__decap_12
XFILLER_0_13_461 VPWR VGND VPWR VGND sky130_ef_sc_hd__decap_12
XFILLER_0_131_989 VPWR VGND VPWR VGND sky130_ef_sc_hd__decap_12
XFILLER_0_7_81 VPWR VGND VPWR VGND sky130_ef_sc_hd__decap_12
XFILLER_0_130_477 VPWR VGND VPWR VGND sky130_ef_sc_hd__decap_12
XFILLER_0_99_1033 VPWR VGND VPWR VGND sky130_ef_sc_hd__decap_12
XFILLER_0_99_1077 VPWR VGND VPWR VGND sky130_ef_sc_hd__decap_12
XFILLER_0_204_209 VPWR VGND VPWR VGND sky130_ef_sc_hd__decap_12
XFILLER_0_99_225 VPWR VGND VPWR VGND sky130_ef_sc_hd__decap_12
XTAP_3202 VGND VPWR sky130_fd_sc_hd__tapvpwrvgnd_1
XTAP_3213 VGND VPWR sky130_fd_sc_hd__tapvpwrvgnd_1
XFILLER_0_198_923 VGND VGND VPWR VPWR sky130_fd_sc_hd__fill_1
XTAP_3224 VGND VPWR sky130_fd_sc_hd__tapvpwrvgnd_1
XTAP_3235 VGND VPWR sky130_fd_sc_hd__tapvpwrvgnd_1
XFILLER_0_169_113 VPWR VGND VPWR VGND sky130_ef_sc_hd__decap_12
XTAP_2501 VGND VPWR sky130_fd_sc_hd__tapvpwrvgnd_1
XTAP_3246 VGND VPWR sky130_fd_sc_hd__tapvpwrvgnd_1
XFILLER_0_68_601 VPWR VGND VPWR VGND sky130_ef_sc_hd__decap_12
XTAP_2512 VGND VPWR sky130_fd_sc_hd__tapvpwrvgnd_1
XTAP_3257 VGND VPWR sky130_fd_sc_hd__tapvpwrvgnd_1
XTAP_2523 VGND VPWR sky130_fd_sc_hd__tapvpwrvgnd_1
XTAP_3268 VGND VPWR sky130_fd_sc_hd__tapvpwrvgnd_1
XTAP_2534 VGND VPWR sky130_fd_sc_hd__tapvpwrvgnd_1
XTAP_3279 VGND VPWR sky130_fd_sc_hd__tapvpwrvgnd_1
XTAP_1800 VGND VPWR sky130_fd_sc_hd__tapvpwrvgnd_1
XTAP_2545 VGND VPWR sky130_fd_sc_hd__tapvpwrvgnd_1
XFILLER_0_185_617 VPWR VGND VPWR VGND sky130_ef_sc_hd__decap_12
XTAP_1811 VGND VPWR sky130_fd_sc_hd__tapvpwrvgnd_1
XFILLER_0_67_111 VGND VGND VPWR VPWR sky130_fd_sc_hd__fill_1
XTAP_2556 VGND VPWR sky130_fd_sc_hd__tapvpwrvgnd_1
XTAP_1822 VGND VPWR sky130_fd_sc_hd__tapvpwrvgnd_1
XFILLER_0_68_645 VPWR VGND VPWR VGND sky130_ef_sc_hd__decap_12
XFILLER_0_36_1061 VPWR VGND VPWR VGND sky130_ef_sc_hd__decap_12
XTAP_2567 VGND VPWR sky130_fd_sc_hd__tapvpwrvgnd_1
XTAP_1833 VGND VPWR sky130_fd_sc_hd__tapvpwrvgnd_1
XTAP_2578 VGND VPWR sky130_fd_sc_hd__tapvpwrvgnd_1
XTAP_1844 VGND VPWR sky130_fd_sc_hd__tapvpwrvgnd_1
XTAP_2589 VGND VPWR sky130_fd_sc_hd__tapvpwrvgnd_1
XTAP_1855 VGND VPWR sky130_fd_sc_hd__tapvpwrvgnd_1
XTAP_1866 VGND VPWR sky130_fd_sc_hd__tapvpwrvgnd_1
XFILLER_0_83_615 VGND VGND VPWR VPWR sky130_fd_sc_hd__fill_1
XFILLER_0_138_533 VPWR VGND VPWR VGND sky130_ef_sc_hd__decap_12
XFILLER_0_55_317 VPWR VGND VPWR VGND sky130_ef_sc_hd__decap_12
XTAP_1877 VGND VPWR sky130_fd_sc_hd__tapvpwrvgnd_1
XTAP_1888 VGND VPWR sky130_fd_sc_hd__tapvpwrvgnd_1
XFILLER_0_95_497 VGND VGND VPWR VPWR sky130_fd_sc_hd__decap_6
XTAP_1899 VGND VPWR sky130_fd_sc_hd__tapvpwrvgnd_1
XFILLER_0_153_503 VGND VGND VPWR VPWR sky130_fd_sc_hd__fill_1
XFILLER_0_36_531 VGND VGND VPWR VPWR sky130_fd_sc_hd__fill_1
XFILLER_0_125_205 VPWR VGND VPWR VGND sky130_ef_sc_hd__decap_12
XFILLER_0_165_385 VGND VGND VPWR VPWR sky130_fd_sc_hd__decap_6
XFILLER_0_70_309 VPWR VGND VPWR VGND sky130_ef_sc_hd__decap_12
XFILLER_0_180_333 VPWR VGND VPWR VGND sky130_ef_sc_hd__decap_12
XFILLER_0_63_361 VPWR VGND VPWR VGND sky130_ef_sc_hd__decap_12
XFILLER_0_107_953 VPWR VGND VPWR VGND sky130_ef_sc_hd__decap_12
XFILLER_0_125_249 VPWR VGND VPWR VGND sky130_ef_sc_hd__decap_12
XFILLER_0_141_709 VPWR VGND VPWR VGND sky130_ef_sc_hd__decap_12
XFILLER_0_181_889 VGND VGND VPWR VPWR sky130_fd_sc_hd__decap_6
XFILLER_0_24_737 VPWR VGND VPWR VGND sky130_ef_sc_hd__decap_12
XFILLER_0_3_609 VGND VGND VPWR VPWR sky130_fd_sc_hd__decap_6
XFILLER_0_23_225 VPWR VGND VPWR VGND sky130_ef_sc_hd__decap_12
XFILLER_0_180_377 VPWR VGND VPWR VGND sky130_ef_sc_hd__decap_12
XFILLER_0_210_41 VPWR VGND VPWR VGND sky130_ef_sc_hd__decap_12
XFILLER_0_122_923 VGND VGND VPWR VPWR sky130_fd_sc_hd__fill_1
XFILLER_0_133_293 VPWR VGND VPWR VGND sky130_ef_sc_hd__decap_12
XFILLER_0_210_85 VPWR VGND VPWR VGND sky130_ef_sc_hd__decap_12
XFILLER_0_107_1033 VPWR VGND VPWR VGND sky130_ef_sc_hd__decap_12
XFILLER_0_32_781 VPWR VGND VPWR VGND sky130_ef_sc_hd__decap_12
XFILLER_0_146_1093 VPWR VGND VPWR VGND sky130_ef_sc_hd__decap_12
XFILLER_0_43_1021 VPWR VGND VPWR VGND sky130_ef_sc_hd__decap_12
XFILLER_0_48_15 VPWR VGND VPWR VGND sky130_ef_sc_hd__decap_12
XFILLER_0_107_1077 VPWR VGND VPWR VGND sky130_ef_sc_hd__decap_12
XFILLER_0_139_39 VPWR VGND VPWR VGND sky130_ef_sc_hd__decap_12
XFILLER_0_43_1065 VPWR VGND VPWR VGND sky130_ef_sc_hd__decap_12
XFILLER_0_177_1009 VPWR VGND VPWR VGND sky130_ef_sc_hd__decap_12
XFILLER_0_78_1117 VPWR VGND VPWR VGND sky130_ef_sc_hd__decap_12
XFILLER_0_155_27 VPWR VGND VPWR VGND sky130_ef_sc_hd__decap_12
XTAP_5160 VGND VPWR sky130_fd_sc_hd__tapvpwrvgnd_1
XFILLER_0_3_39 VPWR VGND VPWR VGND sky130_ef_sc_hd__decap_12
XTAP_5171 VGND VPWR sky130_fd_sc_hd__tapvpwrvgnd_1
XTAP_5182 VGND VPWR sky130_fd_sc_hd__tapvpwrvgnd_1
XTAP_5193 VGND VPWR sky130_fd_sc_hd__tapvpwrvgnd_1
XFILLER_0_189_945 VGND VGND VPWR VPWR sky130_fd_sc_hd__decap_6
XTAP_4470 VGND VPWR sky130_fd_sc_hd__tapvpwrvgnd_1
XFILLER_0_188_433 VPWR VGND VPWR VGND sky130_ef_sc_hd__decap_12
XTAP_4481 VGND VPWR sky130_fd_sc_hd__tapvpwrvgnd_1
XTAP_4492 VGND VPWR sky130_fd_sc_hd__tapvpwrvgnd_1
XFILLER_0_87_921 VPWR VGND VPWR VGND sky130_ef_sc_hd__decap_12
XFILLER_0_149_809 VPWR VGND VPWR VGND sky130_ef_sc_hd__decap_12
XFILLER_0_192_1091 VGND VGND VPWR VPWR sky130_fd_sc_hd__fill_1
XFILLER_0_189_989 VPWR VGND VPWR VGND sky130_ef_sc_hd__decap_12
XFILLER_0_118_1173 VPWR VGND VPWR VGND sky130_ef_sc_hd__decap_12
XTAP_3780 VGND VPWR sky130_fd_sc_hd__tapvpwrvgnd_1
XFILLER_0_188_477 VPWR VGND VPWR VGND sky130_ef_sc_hd__decap_12
XFILLER_0_171_15 VPWR VGND VPWR VGND sky130_ef_sc_hd__decap_12
XFILLER_0_175_105 VGND VGND VPWR VPWR sky130_fd_sc_hd__decap_6
XFILLER_0_15_1101 VPWR VGND VPWR VGND sky130_ef_sc_hd__decap_12
XTAP_3791 VGND VPWR sky130_fd_sc_hd__tapvpwrvgnd_1
XFILLER_0_54_1161 VPWR VGND VPWR VGND sky130_ef_sc_hd__decap_12
XFILLER_0_58_133 VGND VGND VPWR VPWR sky130_fd_sc_hd__decap_6
XFILLER_0_87_965 VPWR VGND VPWR VGND sky130_ef_sc_hd__decap_12
XFILLER_0_114_1037 VPWR VGND VPWR VGND sky130_ef_sc_hd__decap_12
XFILLER_0_147_3 VPWR VGND VPWR VGND sky130_ef_sc_hd__decap_12
XFILLER_0_188_1105 VPWR VGND VPWR VGND sky130_ef_sc_hd__decap_12
XFILLER_0_175_149 VPWR VGND VPWR VGND sky130_ef_sc_hd__decap_12
XFILLER_0_157_853 VPWR VGND VPWR VGND sky130_ef_sc_hd__decap_12
XFILLER_0_15_1145 VPWR VGND VPWR VGND sky130_ef_sc_hd__decap_12
XFILLER_0_86_475 VGND VGND VPWR VPWR sky130_fd_sc_hd__fill_1
XFILLER_0_191_609 VGND VGND VPWR VPWR sky130_fd_sc_hd__decap_6
XFILLER_0_58_177 VPWR VGND VPWR VGND sky130_ef_sc_hd__decap_12
XFILLER_0_89_1213 VPWR VGND VPWR VGND sky130_ef_sc_hd__decap_12
XFILLER_0_74_637 VGND VGND VPWR VPWR sky130_fd_sc_hd__decap_6
XFILLER_0_188_1149 VPWR VGND VPWR VGND sky130_ef_sc_hd__decap_12
XFILLER_0_11_1009 VPWR VGND VPWR VGND sky130_ef_sc_hd__decap_12
XFILLER_0_73_125 VPWR VGND VPWR VGND sky130_ef_sc_hd__decap_12
XFILLER_0_104_53 VPWR VGND VPWR VGND sky130_ef_sc_hd__decap_12
XFILLER_0_200_993 VPWR VGND VPWR VGND sky130_ef_sc_hd__decap_12
XFILLER_0_156_363 VGND VGND VPWR VPWR sky130_fd_sc_hd__fill_1
XFILLER_0_13_51 VGND VGND VPWR VPWR sky130_fd_sc_hd__decap_4
XFILLER_0_157_897 VPWR VGND VPWR VGND sky130_ef_sc_hd__decap_12
XFILLER_0_15_1189 VPWR VGND VPWR VGND sky130_ef_sc_hd__decap_12
XFILLER_0_39_391 VGND VGND VPWR VPWR sky130_fd_sc_hd__fill_1
XFILLER_0_89_1257 VPWR VGND VPWR VGND sky130_ef_sc_hd__decap_12
XFILLER_0_27_553 VGND VGND VPWR VPWR sky130_fd_sc_hd__decap_6
XFILLER_0_144_525 VGND VGND VPWR VPWR sky130_fd_sc_hd__decap_6
XFILLER_0_73_169 VPWR VGND VPWR VGND sky130_ef_sc_hd__decap_12
XFILLER_0_104_97 VPWR VGND VPWR VGND sky130_ef_sc_hd__decap_12
XFILLER_0_183_193 VPWR VGND VPWR VGND sky130_ef_sc_hd__decap_12
XFILLER_0_172_867 VGND VGND VPWR VPWR sky130_fd_sc_hd__fill_1
XFILLER_0_42_501 VPWR VGND VPWR VGND sky130_ef_sc_hd__decap_12
XFILLER_0_55_895 VGND VGND VPWR VPWR sky130_fd_sc_hd__fill_1
XFILLER_0_82_681 VPWR VGND VPWR VGND sky130_ef_sc_hd__decap_12
XFILLER_0_144_569 VPWR VGND VPWR VGND sky130_ef_sc_hd__decap_12
XFILLER_0_27_597 VPWR VGND VPWR VGND sky130_ef_sc_hd__decap_12
XFILLER_0_6_469 VGND VGND VPWR VPWR sky130_fd_sc_hd__decap_6
XFILLER_0_89_55 VGND VGND VPWR VPWR sky130_fd_sc_hd__fill_1
XFILLER_0_42_545 VPWR VGND VPWR VGND sky130_ef_sc_hd__decap_12
XFILLER_0_120_41 VPWR VGND VPWR VGND sky130_ef_sc_hd__decap_12
XFILLER_0_125_783 VGND VGND VPWR VPWR sky130_fd_sc_hd__fill_1
XFILLER_0_113_945 VGND VGND VPWR VPWR sky130_fd_sc_hd__decap_6
XFILLER_0_112_433 VPWR VGND VPWR VGND sky130_ef_sc_hd__decap_12
XFILLER_0_42_589 VPWR VGND VPWR VGND sky130_ef_sc_hd__decap_12
XFILLER_0_11_921 VPWR VGND VPWR VGND sky130_ef_sc_hd__decap_12
XFILLER_0_120_85 VPWR VGND VPWR VGND sky130_ef_sc_hd__decap_12
XFILLER_0_125_1133 VPWR VGND VPWR VGND sky130_ef_sc_hd__decap_12
XFILLER_0_199_1201 VPWR VGND VPWR VGND sky130_ef_sc_hd__decap_12
XFILLER_0_160_1035 VGND VGND VPWR VPWR sky130_fd_sc_hd__fill_1
XFILLER_0_113_989 VPWR VGND VPWR VGND sky130_ef_sc_hd__decap_12
XFILLER_0_26_1241 VPWR VGND VPWR VGND sky130_ef_sc_hd__decap_12
XFILLER_0_61_1121 VPWR VGND VPWR VGND sky130_ef_sc_hd__decap_12
XFILLER_0_112_477 VPWR VGND VPWR VGND sky130_ef_sc_hd__decap_12
XFILLER_0_11_965 VPWR VGND VPWR VGND sky130_ef_sc_hd__decap_12
XFILLER_0_125_1177 VPWR VGND VPWR VGND sky130_ef_sc_hd__decap_12
XFILLER_0_199_1245 VPWR VGND VPWR VGND sky130_ef_sc_hd__decap_12
XFILLER_0_22_1105 VPWR VGND VPWR VGND sky130_ef_sc_hd__decap_12
XFILLER_0_201_1021 VPWR VGND VPWR VGND sky130_ef_sc_hd__decap_12
XFILLER_0_10_475 VGND VGND VPWR VPWR sky130_fd_sc_hd__fill_1
XFILLER_0_22_1149 VPWR VGND VPWR VGND sky130_ef_sc_hd__decap_12
XFILLER_0_201_1065 VPWR VGND VPWR VGND sky130_ef_sc_hd__decap_12
XFILLER_0_96_1217 VPWR VGND VPWR VGND sky130_ef_sc_hd__decap_12
XFILLER_0_199_709 VPWR VGND VPWR VGND sky130_ef_sc_hd__decap_12
XFILLER_0_97_729 VPWR VGND VPWR VGND sky130_ef_sc_hd__decap_12
XFILLER_0_210_713 VPWR VGND VPWR VGND sky130_ef_sc_hd__decap_12
XFILLER_0_167_617 VPWR VGND VPWR VGND sky130_ef_sc_hd__decap_12
XTAP_1107 VGND VPWR sky130_fd_sc_hd__tapvpwrvgnd_1
XFILLER_0_49_111 VGND VGND VPWR VPWR sky130_fd_sc_hd__fill_1
XFILLER_0_136_1273 VGND VGND VPWR VPWR sky130_fd_sc_hd__decap_4
XFILLER_0_145_93 VPWR VGND VPWR VGND sky130_ef_sc_hd__decap_12
XTAP_1118 VGND VPWR sky130_fd_sc_hd__tapvpwrvgnd_1
XFILLER_0_171_1175 VGND VGND VPWR VPWR sky130_fd_sc_hd__fill_1
XFILLER_0_33_1201 VPWR VGND VPWR VGND sky130_ef_sc_hd__decap_12
XTAP_1129 VGND VPWR sky130_fd_sc_hd__tapvpwrvgnd_1
XFILLER_0_210_757 VPWR VGND VPWR VGND sky130_ef_sc_hd__decap_12
XFILLER_0_92_401 VPWR VGND VPWR VGND sky130_ef_sc_hd__decap_12
XFILLER_0_37_317 VPWR VGND VPWR VGND sky130_ef_sc_hd__decap_12
XFILLER_0_33_1245 VPWR VGND VPWR VGND sky130_ef_sc_hd__decap_12
XFILLER_0_194_469 VGND VGND VPWR VPWR sky130_fd_sc_hd__decap_6
XFILLER_0_77_497 VGND VGND VPWR VPWR sky130_fd_sc_hd__decap_6
XFILLER_0_135_503 VGND VGND VPWR VPWR sky130_fd_sc_hd__fill_1
XFILLER_0_18_531 VGND VGND VPWR VPWR sky130_fd_sc_hd__fill_1
XFILLER_0_92_445 VPWR VGND VPWR VGND sky130_ef_sc_hd__decap_12
XFILLER_0_161_81 VPWR VGND VPWR VGND sky130_ef_sc_hd__decap_12
XFILLER_0_107_205 VPWR VGND VPWR VGND sky130_ef_sc_hd__decap_12
XFILLER_0_147_385 VGND VGND VPWR VPWR sky130_fd_sc_hd__decap_6
XFILLER_0_52_309 VPWR VGND VPWR VGND sky130_ef_sc_hd__decap_12
XFILLER_0_162_333 VPWR VGND VPWR VGND sky130_ef_sc_hd__decap_12
XFILLER_0_45_361 VPWR VGND VPWR VGND sky130_ef_sc_hd__decap_12
XFILLER_0_92_489 VPWR VGND VPWR VGND sky130_ef_sc_hd__decap_12
XFILLER_0_107_249 VPWR VGND VPWR VGND sky130_ef_sc_hd__decap_12
XFILLER_0_61_821 VPWR VGND VPWR VGND sky130_ef_sc_hd__decap_12
XFILLER_0_123_709 VPWR VGND VPWR VGND sky130_ef_sc_hd__decap_12
XFILLER_0_163_889 VGND VGND VPWR VPWR sky130_fd_sc_hd__decap_6
XFILLER_0_162_377 VPWR VGND VPWR VGND sky130_ef_sc_hd__decap_12
XFILLER_0_6_981 VPWR VGND VPWR VGND sky130_ef_sc_hd__decap_12
XFILLER_0_61_865 VPWR VGND VPWR VGND sky130_ef_sc_hd__decap_12
XFILLER_0_104_923 VGND VGND VPWR VPWR sky130_fd_sc_hd__fill_1
XFILLER_0_21_729 VPWR VGND VPWR VGND sky130_ef_sc_hd__decap_12
XFILLER_0_115_293 VPWR VGND VPWR VGND sky130_ef_sc_hd__decap_12
XFILLER_0_131_753 VPWR VGND VPWR VGND sky130_ef_sc_hd__decap_12
XFILLER_0_14_781 VPWR VGND VPWR VGND sky130_ef_sc_hd__decap_12
XFILLER_0_143_1233 VPWR VGND VPWR VGND sky130_ef_sc_hd__decap_12
XFILLER_0_104_1217 VPWR VGND VPWR VGND sky130_ef_sc_hd__decap_12
XFILLER_0_131_797 VPWR VGND VPWR VGND sky130_ef_sc_hd__decap_12
XFILLER_0_40_1205 VPWR VGND VPWR VGND sky130_ef_sc_hd__decap_12
XFILLER_0_18_29 VPWR VGND VPWR VGND sky130_ef_sc_hd__decap_12
XFILLER_0_205_529 VPWR VGND VPWR VGND sky130_ef_sc_hd__decap_12
XTAP_3010 VGND VPWR sky130_fd_sc_hd__tapvpwrvgnd_1
XTAP_3021 VGND VPWR sky130_fd_sc_hd__tapvpwrvgnd_1
XTAP_3032 VGND VPWR sky130_fd_sc_hd__tapvpwrvgnd_1
XTAP_3043 VGND VPWR sky130_fd_sc_hd__tapvpwrvgnd_1
XFILLER_0_69_921 VPWR VGND VPWR VGND sky130_ef_sc_hd__decap_12
XFILLER_0_87_217 VGND VGND VPWR VPWR sky130_fd_sc_hd__decap_6
XTAP_3054 VGND VPWR sky130_fd_sc_hd__tapvpwrvgnd_1
XTAP_2320 VGND VPWR sky130_fd_sc_hd__tapvpwrvgnd_1
XTAP_3065 VGND VPWR sky130_fd_sc_hd__tapvpwrvgnd_1
XTAP_2331 VGND VPWR sky130_fd_sc_hd__tapvpwrvgnd_1
XTAP_3076 VGND VPWR sky130_fd_sc_hd__tapvpwrvgnd_1
XFILLER_0_186_937 VPWR VGND VPWR VGND sky130_ef_sc_hd__decap_12
XTAP_2342 VGND VPWR sky130_fd_sc_hd__tapvpwrvgnd_1
XTAP_3087 VGND VPWR sky130_fd_sc_hd__tapvpwrvgnd_1
XFILLER_0_157_105 VGND VGND VPWR VPWR sky130_fd_sc_hd__decap_6
XFILLER_0_69_965 VPWR VGND VPWR VGND sky130_ef_sc_hd__decap_12
XTAP_2353 VGND VPWR sky130_fd_sc_hd__tapvpwrvgnd_1
XTAP_3098 VGND VPWR sky130_fd_sc_hd__tapvpwrvgnd_1
XTAP_2364 VGND VPWR sky130_fd_sc_hd__tapvpwrvgnd_1
XTAP_1630 VGND VPWR sky130_fd_sc_hd__tapvpwrvgnd_1
XTAP_2375 VGND VPWR sky130_fd_sc_hd__tapvpwrvgnd_1
XFILLER_0_200_245 VGND VGND VPWR VPWR sky130_fd_sc_hd__decap_6
XFILLER_0_185_447 VGND VGND VPWR VPWR sky130_fd_sc_hd__fill_1
XTAP_1641 VGND VPWR sky130_fd_sc_hd__tapvpwrvgnd_1
XFILLER_0_68_475 VGND VGND VPWR VPWR sky130_fd_sc_hd__fill_1
XTAP_2386 VGND VPWR sky130_fd_sc_hd__tapvpwrvgnd_1
XFILLER_0_150_1259 VGND VGND VPWR VPWR sky130_fd_sc_hd__fill_1
XFILLER_0_157_149 VPWR VGND VPWR VGND sky130_ef_sc_hd__decap_12
XTAP_1652 VGND VPWR sky130_fd_sc_hd__tapvpwrvgnd_1
XTAP_2397 VGND VPWR sky130_fd_sc_hd__tapvpwrvgnd_1
XFILLER_0_95_261 VPWR VGND VPWR VGND sky130_ef_sc_hd__decap_12
XFILLER_0_139_853 VPWR VGND VPWR VGND sky130_ef_sc_hd__decap_12
XFILLER_0_173_609 VGND VGND VPWR VPWR sky130_fd_sc_hd__decap_6
XTAP_1663 VGND VPWR sky130_fd_sc_hd__tapvpwrvgnd_1
XFILLER_0_56_637 VGND VGND VPWR VPWR sky130_fd_sc_hd__decap_6
XTAP_1674 VGND VPWR sky130_fd_sc_hd__tapvpwrvgnd_1
XFILLER_0_200_289 VPWR VGND VPWR VGND sky130_ef_sc_hd__decap_12
XFILLER_0_3_1121 VPWR VGND VPWR VGND sky130_ef_sc_hd__decap_12
XFILLER_0_55_125 VPWR VGND VPWR VGND sky130_ef_sc_hd__decap_12
XTAP_1685 VGND VPWR sky130_fd_sc_hd__tapvpwrvgnd_1
XFILLER_0_194_981 VPWR VGND VPWR VGND sky130_ef_sc_hd__decap_12
XTAP_1696 VGND VPWR sky130_fd_sc_hd__tapvpwrvgnd_1
XFILLER_0_138_363 VGND VGND VPWR VPWR sky130_fd_sc_hd__fill_1
XFILLER_0_50_27 VGND VGND VPWR VPWR sky130_fd_sc_hd__fill_1
XFILLER_0_84_979 VGND VGND VPWR VPWR sky130_fd_sc_hd__fill_1
XFILLER_0_139_897 VPWR VGND VPWR VGND sky130_ef_sc_hd__decap_12
XFILLER_0_126_525 VGND VGND VPWR VPWR sky130_fd_sc_hd__decap_6
XFILLER_0_55_169 VPWR VGND VPWR VGND sky130_ef_sc_hd__decap_12
XFILLER_0_165_193 VPWR VGND VPWR VGND sky130_ef_sc_hd__decap_12
XFILLER_0_71_629 VPWR VGND VPWR VGND sky130_ef_sc_hd__decap_12
XFILLER_0_181_653 VGND VGND VPWR VPWR sky130_fd_sc_hd__decap_6
XFILLER_0_154_867 VGND VGND VPWR VPWR sky130_fd_sc_hd__fill_1
XFILLER_0_24_501 VPWR VGND VPWR VGND sky130_ef_sc_hd__decap_12
XFILLER_0_37_895 VGND VGND VPWR VPWR sky130_fd_sc_hd__fill_1
XFILLER_0_64_681 VPWR VGND VPWR VGND sky130_ef_sc_hd__decap_12
XFILLER_0_126_569 VPWR VGND VPWR VGND sky130_ef_sc_hd__decap_12
XFILLER_0_180_141 VPWR VGND VPWR VGND sky130_ef_sc_hd__decap_12
XFILLER_0_70_139 VGND VGND VPWR VPWR sky130_fd_sc_hd__fill_1
XFILLER_0_24_545 VPWR VGND VPWR VGND sky130_ef_sc_hd__decap_12
XFILLER_0_3_417 VPWR VGND VPWR VGND sky130_ef_sc_hd__decap_12
XFILLER_0_141_517 VPWR VGND VPWR VGND sky130_ef_sc_hd__decap_12
XFILLER_0_183_1057 VGND VGND VPWR VPWR sky130_fd_sc_hd__decap_6
XFILLER_0_181_697 VPWR VGND VPWR VGND sky130_ef_sc_hd__decap_12
XFILLER_0_107_783 VGND VGND VPWR VPWR sky130_fd_sc_hd__fill_1
XFILLER_0_24_589 VPWR VGND VPWR VGND sky130_ef_sc_hd__decap_12
XFILLER_0_11_217 VGND VGND VPWR VPWR sky130_fd_sc_hd__decap_6
XFILLER_0_80_1029 VGND VGND VPWR VPWR sky130_fd_sc_hd__decap_6
XFILLER_0_59_69 VPWR VGND VPWR VGND sky130_ef_sc_hd__decap_12
XFILLER_0_110_937 VPWR VGND VPWR VGND sky130_ef_sc_hd__decap_12
XFILLER_0_208_301 VGND VGND VPWR VPWR sky130_fd_sc_hd__decap_6
XFILLER_0_166_15 VPWR VGND VPWR VGND sky130_ef_sc_hd__decap_12
XFILLER_0_208_345 VPWR VGND VPWR VGND sky130_ef_sc_hd__decap_12
XFILLER_0_75_57 VPWR VGND VPWR VGND sky130_ef_sc_hd__decap_12
XFILLER_0_120_1085 VGND VGND VPWR VPWR sky130_fd_sc_hd__decap_6
XFILLER_0_208_389 VPWR VGND VPWR VGND sky130_ef_sc_hd__decap_12
XFILLER_0_190_1017 VPWR VGND VPWR VGND sky130_ef_sc_hd__decap_12
XFILLER_0_194_1197 VGND VGND VPWR VPWR sky130_fd_sc_hd__decap_6
XFILLER_0_79_729 VPWR VGND VPWR VGND sky130_ef_sc_hd__decap_12
XFILLER_0_189_753 VPWR VGND VPWR VGND sky130_ef_sc_hd__decap_12
XFILLER_0_149_617 VPWR VGND VPWR VGND sky130_ef_sc_hd__decap_12
XFILLER_0_189_797 VPWR VGND VPWR VGND sky130_ef_sc_hd__decap_12
XFILLER_0_91_1169 VGND VGND VPWR VPWR sky130_fd_sc_hd__decap_6
XFILLER_0_47_615 VGND VGND VPWR VPWR sky130_fd_sc_hd__fill_1
XFILLER_0_74_401 VPWR VGND VPWR VGND sky130_ef_sc_hd__decap_12
XFILLER_0_176_469 VGND VGND VPWR VPWR sky130_fd_sc_hd__decap_6
XFILLER_0_19_317 VPWR VGND VPWR VGND sky130_ef_sc_hd__decap_12
XFILLER_0_24_83 VGND VGND VPWR VPWR sky130_fd_sc_hd__fill_1
XFILLER_0_59_497 VGND VGND VPWR VPWR sky130_fd_sc_hd__decap_6
XFILLER_0_191_417 VPWR VGND VPWR VGND sky130_ef_sc_hd__decap_12
XFILLER_0_89_1021 VPWR VGND VPWR VGND sky130_ef_sc_hd__decap_12
XFILLER_0_117_503 VGND VGND VPWR VPWR sky130_fd_sc_hd__fill_1
XFILLER_0_74_445 VPWR VGND VPWR VGND sky130_ef_sc_hd__decap_12
XFILLER_0_90_905 VPWR VGND VPWR VGND sky130_ef_sc_hd__decap_12
XFILLER_0_129_385 VGND VGND VPWR VPWR sky130_fd_sc_hd__decap_6
XFILLER_0_34_309 VPWR VGND VPWR VGND sky130_ef_sc_hd__decap_12
XFILLER_0_74_489 VPWR VGND VPWR VGND sky130_ef_sc_hd__decap_12
XFILLER_0_89_1065 VPWR VGND VPWR VGND sky130_ef_sc_hd__decap_12
XFILLER_0_144_333 VPWR VGND VPWR VGND sky130_ef_sc_hd__decap_12
XFILLER_0_27_361 VPWR VGND VPWR VGND sky130_ef_sc_hd__decap_12
XFILLER_0_6_233 VPWR VGND VPWR VGND sky130_ef_sc_hd__decap_12
XFILLER_0_90_949 VPWR VGND VPWR VGND sky130_ef_sc_hd__decap_12
XFILLER_0_43_821 VPWR VGND VPWR VGND sky130_ef_sc_hd__decap_12
XFILLER_0_105_709 VPWR VGND VPWR VGND sky130_ef_sc_hd__decap_12
XFILLER_0_131_51 VGND VGND VPWR VPWR sky130_fd_sc_hd__decap_4
XFILLER_0_145_889 VGND VGND VPWR VPWR sky130_fd_sc_hd__decap_6
XFILLER_0_144_377 VPWR VGND VPWR VGND sky130_ef_sc_hd__decap_12
XFILLER_0_160_837 VPWR VGND VPWR VGND sky130_ef_sc_hd__decap_12
XFILLER_0_6_277 VPWR VGND VPWR VGND sky130_ef_sc_hd__decap_12
XFILLER_0_43_865 VPWR VGND VPWR VGND sky130_ef_sc_hd__decap_12
XFILLER_0_3_951 VGND VGND VPWR VPWR sky130_fd_sc_hd__fill_1
XFILLER_0_71_3 VPWR VGND VPWR VGND sky130_ef_sc_hd__decap_12
XFILLER_0_112_230 VPWR VGND VPWR VGND sky130_ef_sc_hd__decap_12
XFILLER_0_113_797 VPWR VGND VPWR VGND sky130_ef_sc_hd__decap_12
XFILLER_0_26_1093 VPWR VGND VPWR VGND sky130_ef_sc_hd__decap_12
XFILLER_0_100_469 VGND VGND VPWR VPWR sky130_fd_sc_hd__decap_6
XFILLER_0_199_517 VPWR VGND VPWR VGND sky130_ef_sc_hd__decap_12
XFILLER_0_57_1009 VPWR VGND VPWR VGND sky130_ef_sc_hd__decap_12
XFILLER_0_69_217 VGND VGND VPWR VPWR sky130_fd_sc_hd__decap_6
XFILLER_0_97_559 VGND VGND VPWR VPWR sky130_fd_sc_hd__fill_1
XFILLER_0_168_937 VPWR VGND VPWR VGND sky130_ef_sc_hd__decap_12
XFILLER_0_139_105 VGND VGND VPWR VPWR sky130_fd_sc_hd__decap_6
XFILLER_0_84_209 VPWR VGND VPWR VGND sky130_ef_sc_hd__decap_12
XFILLER_0_194_233 VPWR VGND VPWR VGND sky130_ef_sc_hd__decap_12
XFILLER_0_167_447 VGND VGND VPWR VPWR sky130_fd_sc_hd__fill_1
XFILLER_0_77_261 VPWR VGND VPWR VGND sky130_ef_sc_hd__decap_12
XFILLER_0_139_149 VPWR VGND VPWR VGND sky130_ef_sc_hd__decap_12
XFILLER_0_155_609 VGND VGND VPWR VPWR sky130_fd_sc_hd__decap_6
XFILLER_0_93_721 VGND VGND VPWR VPWR sky130_fd_sc_hd__decap_6
XFILLER_0_210_587 VGND VGND VPWR VPWR sky130_fd_sc_hd__fill_1
XFILLER_0_38_637 VGND VGND VPWR VPWR sky130_fd_sc_hd__decap_6
XFILLER_0_72_1091 VGND VGND VPWR VPWR sky130_fd_sc_hd__fill_1
XFILLER_0_194_277 VPWR VGND VPWR VGND sky130_ef_sc_hd__decap_12
XFILLER_0_37_125 VPWR VGND VPWR VGND sky130_ef_sc_hd__decap_12
XFILLER_0_176_981 VPWR VGND VPWR VGND sky130_ef_sc_hd__decap_12
XFILLER_0_66_979 VGND VGND VPWR VPWR sky130_fd_sc_hd__fill_1
XFILLER_0_93_765 VPWR VGND VPWR VGND sky130_ef_sc_hd__decap_12
XFILLER_0_108_525 VGND VGND VPWR VPWR sky130_fd_sc_hd__decap_6
XFILLER_0_68_1105 VPWR VGND VPWR VGND sky130_ef_sc_hd__decap_12
XFILLER_0_92_253 VPWR VGND VPWR VGND sky130_ef_sc_hd__decap_12
XFILLER_0_37_169 VPWR VGND VPWR VGND sky130_ef_sc_hd__decap_12
XFILLER_0_191_951 VGND VGND VPWR VPWR sky130_fd_sc_hd__fill_1
XFILLER_0_53_629 VPWR VGND VPWR VGND sky130_ef_sc_hd__decap_12
XFILLER_0_136_867 VGND VGND VPWR VPWR sky130_fd_sc_hd__fill_1
XFILLER_0_147_193 VPWR VGND VPWR VGND sky130_ef_sc_hd__decap_12
XFILLER_0_163_653 VPWR VGND VPWR VGND sky130_ef_sc_hd__decap_12
XFILLER_0_19_895 VGND VGND VPWR VPWR sky130_fd_sc_hd__fill_1
X_131_ VGND VGND VPWR VPWR _131_/HI seg[0] sky130_fd_sc_hd__conb_1
XFILLER_0_162_141 VPWR VGND VPWR VGND sky130_ef_sc_hd__decap_12
XFILLER_0_46_681 VPWR VGND VPWR VGND sky130_ef_sc_hd__decap_12
XFILLER_0_108_569 VPWR VGND VPWR VGND sky130_ef_sc_hd__decap_12
XFILLER_0_208_1005 VPWR VGND VPWR VGND sky130_ef_sc_hd__decap_12
XFILLER_0_68_1149 VPWR VGND VPWR VGND sky130_ef_sc_hd__decap_12
XFILLER_0_52_139 VGND VGND VPWR VPWR sky130_fd_sc_hd__fill_1
XFILLER_0_123_517 VPWR VGND VPWR VGND sky130_ef_sc_hd__decap_12
XFILLER_0_163_697 VPWR VGND VPWR VGND sky130_ef_sc_hd__decap_12
X_062_ _028_ _029_ _030_ _031_ VGND VGND VPWR VPWR _032_ sky130_fd_sc_hd__or4b_2
XFILLER_0_208_1049 VPWR VGND VPWR VGND sky130_ef_sc_hd__decap_12
XFILLER_0_61_673 VPWR VGND VPWR VGND sky130_ef_sc_hd__decap_12
XFILLER_0_108_1161 VPWR VGND VPWR VGND sky130_ef_sc_hd__decap_12
XFILLER_0_131_561 VPWR VGND VPWR VGND sky130_ef_sc_hd__decap_12
XFILLER_0_21_559 VGND VGND VPWR VPWR sky130_fd_sc_hd__fill_1
XFILLER_0_143_1063 VGND VGND VPWR VPWR sky130_fd_sc_hd__fill_1
XFILLER_0_29_39 VPWR VGND VPWR VGND sky130_ef_sc_hd__decap_12
XFILLER_0_40_1035 VGND VGND VPWR VPWR sky130_fd_sc_hd__fill_1
XFILLER_0_79_1201 VPWR VGND VPWR VGND sky130_ef_sc_hd__decap_12
XFILLER_0_100_981 VPWR VGND VPWR VGND sky130_ef_sc_hd__decap_12
XFILLER_0_79_1245 VPWR VGND VPWR VGND sky130_ef_sc_hd__decap_12
XFILLER_0_206_849 VPWR VGND VPWR VGND sky130_ef_sc_hd__decap_12
XFILLER_0_136_29 VPWR VGND VPWR VGND sky130_ef_sc_hd__decap_12
XFILLER_0_205_337 VPWR VGND VPWR VGND sky130_ef_sc_hd__decap_12
XFILLER_0_45_27 VPWR VGND VPWR VGND sky130_ef_sc_hd__decap_12
XFILLER_0_186_701 VPWR VGND VPWR VGND sky130_ef_sc_hd__decap_12